version 2
run eee2_100M-0-20140227-05:14:15-34265
attr configname eee2_100M
attr datetime 20140227-05:14:15
attr experiment eee2_100M
attr inifile EPL_etfa.ini
attr iterationvars ""
attr iterationvars2 $repetition=0
attr measurement ""
attr network eeepowerlink.networks.EPL_etfa
attr processid 34265
attr repetition 0
attr replication #0
attr resultdir results
attr runnumber 0
attr seedset 0

scalar EPL_etfa.Host0.CN 	sentPk:count 	400
attr interpolationmode  none
attr source  sentPk
attr title  "packets sent, count"
scalar EPL_etfa.Host0.CN 	sentPk:sum(packetBytes) 	4500
attr interpolationmode  none
attr source  sentPk
attr title  "packets sent, sum(packetBytes)"
scalar EPL_etfa.Host0.CN 	rcvdPk:count 	100
attr interpolationmode  none
attr source  rcvdPk
attr title  "packets received, count"
scalar EPL_etfa.Host0.CN 	rcvdPk:sum(packetBytes) 	100
attr interpolationmode  none
attr source  rcvdPk
attr title  "packets received, sum(packetBytes)"
scalar EPL_etfa.Host0.llc 	pauseSent:count 	0
attr title  "pause sent, count"
scalar EPL_etfa.Host0.llc 	pauseSent:sum 	0
attr title  "pause sent, sum"
scalar EPL_etfa.Host0.llc 	decapPk:count 	6500
attr interpolationmode  none
attr source  decapPk
attr title  "packets decapsulated, count"
scalar EPL_etfa.Host0.llc 	decapPk:sum(packetBytes) 	274900
attr interpolationmode  none
attr source  decapPk
attr title  "packets decapsulated, sum(packetBytes)"
scalar EPL_etfa.Host0.llc 	encapPk:count 	200
attr interpolationmode  none
attr source  encapPk
attr title  "packets encapsulated, count"
scalar EPL_etfa.Host0.llc 	encapPk:sum(packetBytes) 	4500
attr interpolationmode  none
attr source  encapPk
attr title  "packets encapsulated, sum(packetBytes)"
scalar EPL_etfa.Host0.mac 	"simulated time" 	0.5
scalar EPL_etfa.Host0.mac 	full-duplex 	1
scalar EPL_etfa.Host0.mac 	"frames/sec sent" 	400
scalar EPL_etfa.Host0.mac 	"frames/sec rcvd" 	13000
scalar EPL_etfa.Host0.mac 	"bits/sec sent" 	204800
scalar EPL_etfa.Host0.mac 	"bits/sec rcvd" 	6656000
scalar EPL_etfa.Host0.mac 	"rx channel idle (%)" 	92.512
scalar EPL_etfa.Host0.mac 	"rx channel utilization (%)" 	7.488
scalar EPL_etfa.Host0.mac 	droppedPkNotForUs:count 	0
attr interpolationmode  none
attr source  dropPkNotForUs
attr title  "packets dropped/not for us, count"
scalar EPL_etfa.Host0.mac 	droppedPkNotForUs:sum(packetBytes) 	0
attr interpolationmode  none
attr source  dropPkNotForUs
attr title  "packets dropped/not for us, sum(packetBytes)"
scalar EPL_etfa.Host0.mac 	droppedPkBitError:count 	0
attr interpolationmode  none
attr source  dropPkBitError
attr title  "packets dropped/bit error, count"
scalar EPL_etfa.Host0.mac 	droppedPkBitError:sum(packetBytes) 	0
attr interpolationmode  none
attr source  dropPkBitError
attr title  "packets dropped/bit error, sum(packetBytes)"
scalar EPL_etfa.Host0.mac 	droppedPkIfaceDown:count 	0
attr interpolationmode  none
attr source  dropPkIfaceDown
attr title  "packets dropped/interface down, count"
scalar EPL_etfa.Host0.mac 	droppedPkIfaceDown:sum(packetBytes) 	0
attr interpolationmode  none
attr source  dropPkIfaceDown
attr title  "packets dropped/interface down, sum(packetBytes)"
scalar EPL_etfa.Host0.mac 	rxPkFromHL:count 	200
attr interpolationmode  none
attr source  rxPkFromHL
attr title  "packet bytes from higher layer, count"
scalar EPL_etfa.Host0.mac 	rxPkFromHL:sum(packetBytes) 	12800
attr interpolationmode  none
attr source  rxPkFromHL
attr title  "packet bytes from higher layer, sum(packetBytes)"
scalar EPL_etfa.Host0.mac 	rxPausePkUnits:count 	0
attr interpolationmode  none
attr title  "pause units received, count"
scalar EPL_etfa.Host0.mac 	rxPausePkUnits:sum 	0
attr interpolationmode  none
attr title  "pause units received, sum"
scalar EPL_etfa.Host0.mac 	txPausePkUnits:count 	0
attr interpolationmode  none
attr title  "pause units sent, count"
scalar EPL_etfa.Host0.mac 	txPausePkUnits:sum 	0
attr interpolationmode  none
attr title  "pause units sent, sum"
scalar EPL_etfa.Host0.mac 	passedUpPk:count 	6500
attr interpolationmode  none
attr source  packetSentToUpper
attr title  "packets passed to higher layer, count"
scalar EPL_etfa.Host0.mac 	passedUpPk:sum(packetBytes) 	416000
attr interpolationmode  none
attr source  packetSentToUpper
attr title  "packets passed to higher layer, sum(packetBytes)"
scalar EPL_etfa.Host0.mac 	rxPkOk:count 	6500
attr interpolationmode  none
attr source  rxPkOk
attr title  "packets received OK, count"
scalar EPL_etfa.Host0.mac 	rxPkOk:sum(packetBytes) 	416000
attr interpolationmode  none
attr source  rxPkOk
attr title  "packets received OK, sum(packetBytes)"
scalar EPL_etfa.Host0.mac 	txPk:count 	200
attr interpolationmode  none
attr source  txPk
attr title  "packets transmitted, count"
scalar EPL_etfa.Host0.mac 	txPk:sum(packetBytes) 	12800
attr interpolationmode  none
attr source  txPk
attr title  "packets transmitted, sum(packetBytes)"
scalar EPL_etfa.Host0.lpi_client 	linkPLPI_time:min 	0.004275459664
attr source  partial_lpi_time
scalar EPL_etfa.Host0.lpi_client 	linkPLPI_time:max 	0.004275459664
attr source  partial_lpi_time
scalar EPL_etfa.Host0.lpi_client 	linkPLPI_time:timeavg 	0.004275459664
attr source  partial_lpi_time
scalar EPL_etfa.Host0.lpi_client 	linkLPI_time:min 	8.0699998e-05
attr source  lpi_time
scalar EPL_etfa.Host0.lpi_client 	linkLPI_time:max 	0.000616040337
attr source  lpi_time
scalar EPL_etfa.Host0.lpi_client 	linkLPI_time:timeavg 	0.00061068606943124
attr source  lpi_time
scalar EPL_etfa.PLC.MN 	sentPk:count 	6500
attr interpolationmode  none
attr source  sentPk
attr title  "packets sent, count"
scalar EPL_etfa.PLC.MN 	sentPk:sum(packetBytes) 	6400
attr interpolationmode  none
attr source  sentPk
attr title  "packets sent, sum(packetBytes)"
scalar EPL_etfa.PLC.MN 	rcvdPk:count 	6200
attr interpolationmode  none
attr source  rcvdPk
attr title  "packets received, count"
scalar EPL_etfa.PLC.MN 	rcvdPk:sum(packetBytes) 	279000
attr interpolationmode  none
attr source  rcvdPk
attr title  "packets received, sum(packetBytes)"
scalar EPL_etfa.PLC.llc 	pauseSent:count 	0
attr title  "pause sent, count"
scalar EPL_etfa.PLC.llc 	pauseSent:sum 	0
attr title  "pause sent, sum"
scalar EPL_etfa.PLC.llc 	decapPk:count 	6200
attr interpolationmode  none
attr source  decapPk
attr title  "packets decapsulated, count"
scalar EPL_etfa.PLC.llc 	decapPk:sum(packetBytes) 	279000
attr interpolationmode  none
attr source  decapPk
attr title  "packets decapsulated, sum(packetBytes)"
scalar EPL_etfa.PLC.llc 	encapPk:count 	6600
attr interpolationmode  none
attr source  encapPk
attr title  "packets encapsulated, count"
scalar EPL_etfa.PLC.llc 	encapPk:sum(packetBytes) 	6500
attr interpolationmode  none
attr source  encapPk
attr title  "packets encapsulated, sum(packetBytes)"
scalar EPL_etfa.PLC.mac 	"simulated time" 	0.5
scalar EPL_etfa.PLC.mac 	full-duplex 	1
scalar EPL_etfa.PLC.mac 	"frames/sec sent" 	13200
scalar EPL_etfa.PLC.mac 	"frames/sec rcvd" 	12400
scalar EPL_etfa.PLC.mac 	"bits/sec sent" 	6758400
scalar EPL_etfa.PLC.mac 	"bits/sec rcvd" 	6348800
scalar EPL_etfa.PLC.mac 	"rx channel idle (%)" 	92.8576
scalar EPL_etfa.PLC.mac 	"rx channel utilization (%)" 	7.1424
scalar EPL_etfa.PLC.mac 	droppedPkNotForUs:count 	0
attr interpolationmode  none
attr source  dropPkNotForUs
attr title  "packets dropped/not for us, count"
scalar EPL_etfa.PLC.mac 	droppedPkNotForUs:sum(packetBytes) 	0
attr interpolationmode  none
attr source  dropPkNotForUs
attr title  "packets dropped/not for us, sum(packetBytes)"
scalar EPL_etfa.PLC.mac 	droppedPkBitError:count 	0
attr interpolationmode  none
attr source  dropPkBitError
attr title  "packets dropped/bit error, count"
scalar EPL_etfa.PLC.mac 	droppedPkBitError:sum(packetBytes) 	0
attr interpolationmode  none
attr source  dropPkBitError
attr title  "packets dropped/bit error, sum(packetBytes)"
scalar EPL_etfa.PLC.mac 	droppedPkIfaceDown:count 	0
attr interpolationmode  none
attr source  dropPkIfaceDown
attr title  "packets dropped/interface down, count"
scalar EPL_etfa.PLC.mac 	droppedPkIfaceDown:sum(packetBytes) 	0
attr interpolationmode  none
attr source  dropPkIfaceDown
attr title  "packets dropped/interface down, sum(packetBytes)"
scalar EPL_etfa.PLC.mac 	rxPkFromHL:count 	6600
attr interpolationmode  none
attr source  rxPkFromHL
attr title  "packet bytes from higher layer, count"
scalar EPL_etfa.PLC.mac 	rxPkFromHL:sum(packetBytes) 	422400
attr interpolationmode  none
attr source  rxPkFromHL
attr title  "packet bytes from higher layer, sum(packetBytes)"
scalar EPL_etfa.PLC.mac 	rxPausePkUnits:count 	0
attr interpolationmode  none
attr title  "pause units received, count"
scalar EPL_etfa.PLC.mac 	rxPausePkUnits:sum 	0
attr interpolationmode  none
attr title  "pause units received, sum"
scalar EPL_etfa.PLC.mac 	txPausePkUnits:count 	0
attr interpolationmode  none
attr title  "pause units sent, count"
scalar EPL_etfa.PLC.mac 	txPausePkUnits:sum 	0
attr interpolationmode  none
attr title  "pause units sent, sum"
scalar EPL_etfa.PLC.mac 	passedUpPk:count 	6200
attr interpolationmode  none
attr source  packetSentToUpper
attr title  "packets passed to higher layer, count"
scalar EPL_etfa.PLC.mac 	passedUpPk:sum(packetBytes) 	396800
attr interpolationmode  none
attr source  packetSentToUpper
attr title  "packets passed to higher layer, sum(packetBytes)"
scalar EPL_etfa.PLC.mac 	rxPkOk:count 	6200
attr interpolationmode  none
attr source  rxPkOk
attr title  "packets received OK, count"
scalar EPL_etfa.PLC.mac 	rxPkOk:sum(packetBytes) 	396800
attr interpolationmode  none
attr source  rxPkOk
attr title  "packets received OK, sum(packetBytes)"
scalar EPL_etfa.PLC.mac 	txPk:count 	6600
attr interpolationmode  none
attr source  txPk
attr title  "packets transmitted, count"
scalar EPL_etfa.PLC.mac 	txPk:sum(packetBytes) 	422400
attr interpolationmode  none
attr source  txPk
attr title  "packets transmitted, sum(packetBytes)"
scalar EPL_etfa.PLC.lpi_client 	linkPLPI_time:min 	0.004445459663
attr source  partial_lpi_time
scalar EPL_etfa.PLC.lpi_client 	linkPLPI_time:max 	0.4445459663
attr source  partial_lpi_time
scalar EPL_etfa.PLC.lpi_client 	linkPLPI_time:timeavg 	0.2225217132593
attr source  partial_lpi_time
scalar EPL_etfa.PLC.lpi_client 	linkLPI_time:min 	0
attr source  lpi_time
scalar EPL_etfa.PLC.lpi_client 	linkLPI_time:max 	0.000554540337
attr source  lpi_time
scalar EPL_etfa.PLC.lpi_client 	linkLPI_time:timeavg 	0.00054899493363
attr source  lpi_time
scalar EPL_etfa.Host1.CN 	sentPk:count 	400
attr interpolationmode  none
attr source  sentPk
attr title  "packets sent, count"
scalar EPL_etfa.Host1.CN 	sentPk:sum(packetBytes) 	4500
attr interpolationmode  none
attr source  sentPk
attr title  "packets sent, sum(packetBytes)"
scalar EPL_etfa.Host1.CN 	rcvdPk:count 	100
attr interpolationmode  none
attr source  rcvdPk
attr title  "packets received, count"
scalar EPL_etfa.Host1.CN 	rcvdPk:sum(packetBytes) 	100
attr interpolationmode  none
attr source  rcvdPk
attr title  "packets received, sum(packetBytes)"
scalar EPL_etfa.Host1.llc 	pauseSent:count 	0
attr title  "pause sent, count"
scalar EPL_etfa.Host1.llc 	pauseSent:sum 	0
attr title  "pause sent, sum"
scalar EPL_etfa.Host1.llc 	decapPk:count 	6500
attr interpolationmode  none
attr source  decapPk
attr title  "packets decapsulated, count"
scalar EPL_etfa.Host1.llc 	decapPk:sum(packetBytes) 	274900
attr interpolationmode  none
attr source  decapPk
attr title  "packets decapsulated, sum(packetBytes)"
scalar EPL_etfa.Host1.llc 	encapPk:count 	200
attr interpolationmode  none
attr source  encapPk
attr title  "packets encapsulated, count"
scalar EPL_etfa.Host1.llc 	encapPk:sum(packetBytes) 	4500
attr interpolationmode  none
attr source  encapPk
attr title  "packets encapsulated, sum(packetBytes)"
scalar EPL_etfa.Host1.mac 	"simulated time" 	0.5
scalar EPL_etfa.Host1.mac 	full-duplex 	1
scalar EPL_etfa.Host1.mac 	"frames/sec sent" 	400
scalar EPL_etfa.Host1.mac 	"frames/sec rcvd" 	13000
scalar EPL_etfa.Host1.mac 	"bits/sec sent" 	204800
scalar EPL_etfa.Host1.mac 	"bits/sec rcvd" 	6656000
scalar EPL_etfa.Host1.mac 	"rx channel idle (%)" 	92.512
scalar EPL_etfa.Host1.mac 	"rx channel utilization (%)" 	7.488
scalar EPL_etfa.Host1.mac 	droppedPkNotForUs:count 	0
attr interpolationmode  none
attr source  dropPkNotForUs
attr title  "packets dropped/not for us, count"
scalar EPL_etfa.Host1.mac 	droppedPkNotForUs:sum(packetBytes) 	0
attr interpolationmode  none
attr source  dropPkNotForUs
attr title  "packets dropped/not for us, sum(packetBytes)"
scalar EPL_etfa.Host1.mac 	droppedPkBitError:count 	0
attr interpolationmode  none
attr source  dropPkBitError
attr title  "packets dropped/bit error, count"
scalar EPL_etfa.Host1.mac 	droppedPkBitError:sum(packetBytes) 	0
attr interpolationmode  none
attr source  dropPkBitError
attr title  "packets dropped/bit error, sum(packetBytes)"
scalar EPL_etfa.Host1.mac 	droppedPkIfaceDown:count 	0
attr interpolationmode  none
attr source  dropPkIfaceDown
attr title  "packets dropped/interface down, count"
scalar EPL_etfa.Host1.mac 	droppedPkIfaceDown:sum(packetBytes) 	0
attr interpolationmode  none
attr source  dropPkIfaceDown
attr title  "packets dropped/interface down, sum(packetBytes)"
scalar EPL_etfa.Host1.mac 	rxPkFromHL:count 	200
attr interpolationmode  none
attr source  rxPkFromHL
attr title  "packet bytes from higher layer, count"
scalar EPL_etfa.Host1.mac 	rxPkFromHL:sum(packetBytes) 	12800
attr interpolationmode  none
attr source  rxPkFromHL
attr title  "packet bytes from higher layer, sum(packetBytes)"
scalar EPL_etfa.Host1.mac 	rxPausePkUnits:count 	0
attr interpolationmode  none
attr title  "pause units received, count"
scalar EPL_etfa.Host1.mac 	rxPausePkUnits:sum 	0
attr interpolationmode  none
attr title  "pause units received, sum"
scalar EPL_etfa.Host1.mac 	txPausePkUnits:count 	0
attr interpolationmode  none
attr title  "pause units sent, count"
scalar EPL_etfa.Host1.mac 	txPausePkUnits:sum 	0
attr interpolationmode  none
attr title  "pause units sent, sum"
scalar EPL_etfa.Host1.mac 	passedUpPk:count 	6500
attr interpolationmode  none
attr source  packetSentToUpper
attr title  "packets passed to higher layer, count"
scalar EPL_etfa.Host1.mac 	passedUpPk:sum(packetBytes) 	416000
attr interpolationmode  none
attr source  packetSentToUpper
attr title  "packets passed to higher layer, sum(packetBytes)"
scalar EPL_etfa.Host1.mac 	rxPkOk:count 	6500
attr interpolationmode  none
attr source  rxPkOk
attr title  "packets received OK, count"
scalar EPL_etfa.Host1.mac 	rxPkOk:sum(packetBytes) 	416000
attr interpolationmode  none
attr source  rxPkOk
attr title  "packets received OK, sum(packetBytes)"
scalar EPL_etfa.Host1.mac 	txPk:count 	200
attr interpolationmode  none
attr source  txPk
attr title  "packets transmitted, count"
scalar EPL_etfa.Host1.mac 	txPk:sum(packetBytes) 	12800
attr interpolationmode  none
attr source  txPk
attr title  "packets transmitted, sum(packetBytes)"
scalar EPL_etfa.Host1.lpi_client 	linkPLPI_time:min 	0.004275459664
attr source  partial_lpi_time
scalar EPL_etfa.Host1.lpi_client 	linkPLPI_time:max 	0.004275459664
attr source  partial_lpi_time
scalar EPL_etfa.Host1.lpi_client 	linkPLPI_time:timeavg 	0.004275459664
attr source  partial_lpi_time
scalar EPL_etfa.Host1.lpi_client 	linkLPI_time:min 	8.0699998e-05
attr source  lpi_time
scalar EPL_etfa.Host1.lpi_client 	linkLPI_time:max 	0.000616040337
attr source  lpi_time
scalar EPL_etfa.Host1.lpi_client 	linkLPI_time:timeavg 	0.00061068606943124
attr source  lpi_time
scalar EPL_etfa.switch0 	"simulated time" 	0.5
scalar EPL_etfa.switch0 	messages/sec 	25600
scalar EPL_etfa.switch0 	pk:count 	12800
attr interpolationmode  none
attr source  pk
attr title  "packets, count"
scalar EPL_etfa.switch0 	pk:sum(packetBytes) 	921500
attr interpolationmode  none
attr source  pk
attr title  "packets, sum(packetBytes)"
scalar EPL_etfa.switch1 	"simulated time" 	0.5
scalar EPL_etfa.switch1 	messages/sec 	17400
scalar EPL_etfa.switch1 	pk:count 	8700
attr interpolationmode  none
attr source  pk
attr title  "packets, count"
scalar EPL_etfa.switch1 	pk:sum(packetBytes) 	626300
attr interpolationmode  none
attr source  pk
attr title  "packets, sum(packetBytes)"
scalar EPL_etfa.switch2 	"simulated time" 	0.5
scalar EPL_etfa.switch2 	messages/sec 	17400
scalar EPL_etfa.switch2 	pk:count 	8700
attr interpolationmode  none
attr source  pk
attr title  "packets, count"
scalar EPL_etfa.switch2 	pk:sum(packetBytes) 	626300
attr interpolationmode  none
attr source  pk
attr title  "packets, sum(packetBytes)"
scalar EPL_etfa.switch3 	"simulated time" 	0.5
scalar EPL_etfa.switch3 	messages/sec 	21000
scalar EPL_etfa.switch3 	pk:count 	10500
attr interpolationmode  none
attr source  pk
attr title  "packets, count"
scalar EPL_etfa.switch3 	pk:sum(packetBytes) 	755900
attr interpolationmode  none
attr source  pk
attr title  "packets, sum(packetBytes)"
scalar EPL_etfa.switch4 	"simulated time" 	0.5
scalar EPL_etfa.switch4 	messages/sec 	21000
scalar EPL_etfa.switch4 	pk:count 	10500
attr interpolationmode  none
attr source  pk
attr title  "packets, count"
scalar EPL_etfa.switch4 	pk:sum(packetBytes) 	755900
attr interpolationmode  none
attr source  pk
attr title  "packets, sum(packetBytes)"
scalar EPL_etfa.switch5 	"simulated time" 	0.5
scalar EPL_etfa.switch5 	messages/sec 	21000
scalar EPL_etfa.switch5 	pk:count 	10500
attr interpolationmode  none
attr source  pk
attr title  "packets, count"
scalar EPL_etfa.switch5 	pk:sum(packetBytes) 	755900
attr interpolationmode  none
attr source  pk
attr title  "packets, sum(packetBytes)"
scalar EPL_etfa.Subnet1_Host[0].CN 	sentPk:count 	400
attr interpolationmode  none
attr source  sentPk
attr title  "packets sent, count"
scalar EPL_etfa.Subnet1_Host[0].CN 	sentPk:sum(packetBytes) 	4500
attr interpolationmode  none
attr source  sentPk
attr title  "packets sent, sum(packetBytes)"
scalar EPL_etfa.Subnet1_Host[0].CN 	rcvdPk:count 	100
attr interpolationmode  none
attr source  rcvdPk
attr title  "packets received, count"
scalar EPL_etfa.Subnet1_Host[0].CN 	rcvdPk:sum(packetBytes) 	100
attr interpolationmode  none
attr source  rcvdPk
attr title  "packets received, sum(packetBytes)"
scalar EPL_etfa.Subnet1_Host[0].llc 	pauseSent:count 	0
attr title  "pause sent, count"
scalar EPL_etfa.Subnet1_Host[0].llc 	pauseSent:sum 	0
attr title  "pause sent, sum"
scalar EPL_etfa.Subnet1_Host[0].llc 	decapPk:count 	6500
attr interpolationmode  none
attr source  decapPk
attr title  "packets decapsulated, count"
scalar EPL_etfa.Subnet1_Host[0].llc 	decapPk:sum(packetBytes) 	274900
attr interpolationmode  none
attr source  decapPk
attr title  "packets decapsulated, sum(packetBytes)"
scalar EPL_etfa.Subnet1_Host[0].llc 	encapPk:count 	200
attr interpolationmode  none
attr source  encapPk
attr title  "packets encapsulated, count"
scalar EPL_etfa.Subnet1_Host[0].llc 	encapPk:sum(packetBytes) 	4500
attr interpolationmode  none
attr source  encapPk
attr title  "packets encapsulated, sum(packetBytes)"
scalar EPL_etfa.Subnet1_Host[0].mac 	"simulated time" 	0.5
scalar EPL_etfa.Subnet1_Host[0].mac 	full-duplex 	1
scalar EPL_etfa.Subnet1_Host[0].mac 	"frames/sec sent" 	400
scalar EPL_etfa.Subnet1_Host[0].mac 	"frames/sec rcvd" 	13000
scalar EPL_etfa.Subnet1_Host[0].mac 	"bits/sec sent" 	204800
scalar EPL_etfa.Subnet1_Host[0].mac 	"bits/sec rcvd" 	6656000
scalar EPL_etfa.Subnet1_Host[0].mac 	"rx channel idle (%)" 	92.512
scalar EPL_etfa.Subnet1_Host[0].mac 	"rx channel utilization (%)" 	7.488
scalar EPL_etfa.Subnet1_Host[0].mac 	droppedPkNotForUs:count 	0
attr interpolationmode  none
attr source  dropPkNotForUs
attr title  "packets dropped/not for us, count"
scalar EPL_etfa.Subnet1_Host[0].mac 	droppedPkNotForUs:sum(packetBytes) 	0
attr interpolationmode  none
attr source  dropPkNotForUs
attr title  "packets dropped/not for us, sum(packetBytes)"
scalar EPL_etfa.Subnet1_Host[0].mac 	droppedPkBitError:count 	0
attr interpolationmode  none
attr source  dropPkBitError
attr title  "packets dropped/bit error, count"
scalar EPL_etfa.Subnet1_Host[0].mac 	droppedPkBitError:sum(packetBytes) 	0
attr interpolationmode  none
attr source  dropPkBitError
attr title  "packets dropped/bit error, sum(packetBytes)"
scalar EPL_etfa.Subnet1_Host[0].mac 	droppedPkIfaceDown:count 	0
attr interpolationmode  none
attr source  dropPkIfaceDown
attr title  "packets dropped/interface down, count"
scalar EPL_etfa.Subnet1_Host[0].mac 	droppedPkIfaceDown:sum(packetBytes) 	0
attr interpolationmode  none
attr source  dropPkIfaceDown
attr title  "packets dropped/interface down, sum(packetBytes)"
scalar EPL_etfa.Subnet1_Host[0].mac 	rxPkFromHL:count 	200
attr interpolationmode  none
attr source  rxPkFromHL
attr title  "packet bytes from higher layer, count"
scalar EPL_etfa.Subnet1_Host[0].mac 	rxPkFromHL:sum(packetBytes) 	12800
attr interpolationmode  none
attr source  rxPkFromHL
attr title  "packet bytes from higher layer, sum(packetBytes)"
scalar EPL_etfa.Subnet1_Host[0].mac 	rxPausePkUnits:count 	0
attr interpolationmode  none
attr title  "pause units received, count"
scalar EPL_etfa.Subnet1_Host[0].mac 	rxPausePkUnits:sum 	0
attr interpolationmode  none
attr title  "pause units received, sum"
scalar EPL_etfa.Subnet1_Host[0].mac 	txPausePkUnits:count 	0
attr interpolationmode  none
attr title  "pause units sent, count"
scalar EPL_etfa.Subnet1_Host[0].mac 	txPausePkUnits:sum 	0
attr interpolationmode  none
attr title  "pause units sent, sum"
scalar EPL_etfa.Subnet1_Host[0].mac 	passedUpPk:count 	6500
attr interpolationmode  none
attr source  packetSentToUpper
attr title  "packets passed to higher layer, count"
scalar EPL_etfa.Subnet1_Host[0].mac 	passedUpPk:sum(packetBytes) 	416000
attr interpolationmode  none
attr source  packetSentToUpper
attr title  "packets passed to higher layer, sum(packetBytes)"
scalar EPL_etfa.Subnet1_Host[0].mac 	rxPkOk:count 	6500
attr interpolationmode  none
attr source  rxPkOk
attr title  "packets received OK, count"
scalar EPL_etfa.Subnet1_Host[0].mac 	rxPkOk:sum(packetBytes) 	416000
attr interpolationmode  none
attr source  rxPkOk
attr title  "packets received OK, sum(packetBytes)"
scalar EPL_etfa.Subnet1_Host[0].mac 	txPk:count 	200
attr interpolationmode  none
attr source  txPk
attr title  "packets transmitted, count"
scalar EPL_etfa.Subnet1_Host[0].mac 	txPk:sum(packetBytes) 	12800
attr interpolationmode  none
attr source  txPk
attr title  "packets transmitted, sum(packetBytes)"
scalar EPL_etfa.Subnet1_Host[0].lpi_client 	linkPLPI_time:min 	0.004254959664
attr source  partial_lpi_time
scalar EPL_etfa.Subnet1_Host[0].lpi_client 	linkPLPI_time:max 	0.004254959664
attr source  partial_lpi_time
scalar EPL_etfa.Subnet1_Host[0].lpi_client 	linkPLPI_time:timeavg 	0.004254959664
attr source  partial_lpi_time
scalar EPL_etfa.Subnet1_Host[0].lpi_client 	linkLPI_time:min 	0.000107919997
attr source  lpi_time
scalar EPL_etfa.Subnet1_Host[0].lpi_client 	linkLPI_time:max 	0.000636540337
attr source  lpi_time
scalar EPL_etfa.Subnet1_Host[0].lpi_client 	linkLPI_time:timeavg 	0.00063125299237957
attr source  lpi_time
scalar EPL_etfa.Subnet1_Host[1].CN 	sentPk:count 	400
attr interpolationmode  none
attr source  sentPk
attr title  "packets sent, count"
scalar EPL_etfa.Subnet1_Host[1].CN 	sentPk:sum(packetBytes) 	4500
attr interpolationmode  none
attr source  sentPk
attr title  "packets sent, sum(packetBytes)"
scalar EPL_etfa.Subnet1_Host[1].CN 	rcvdPk:count 	100
attr interpolationmode  none
attr source  rcvdPk
attr title  "packets received, count"
scalar EPL_etfa.Subnet1_Host[1].CN 	rcvdPk:sum(packetBytes) 	100
attr interpolationmode  none
attr source  rcvdPk
attr title  "packets received, sum(packetBytes)"
scalar EPL_etfa.Subnet1_Host[1].llc 	pauseSent:count 	0
attr title  "pause sent, count"
scalar EPL_etfa.Subnet1_Host[1].llc 	pauseSent:sum 	0
attr title  "pause sent, sum"
scalar EPL_etfa.Subnet1_Host[1].llc 	decapPk:count 	6500
attr interpolationmode  none
attr source  decapPk
attr title  "packets decapsulated, count"
scalar EPL_etfa.Subnet1_Host[1].llc 	decapPk:sum(packetBytes) 	274900
attr interpolationmode  none
attr source  decapPk
attr title  "packets decapsulated, sum(packetBytes)"
scalar EPL_etfa.Subnet1_Host[1].llc 	encapPk:count 	200
attr interpolationmode  none
attr source  encapPk
attr title  "packets encapsulated, count"
scalar EPL_etfa.Subnet1_Host[1].llc 	encapPk:sum(packetBytes) 	4500
attr interpolationmode  none
attr source  encapPk
attr title  "packets encapsulated, sum(packetBytes)"
scalar EPL_etfa.Subnet1_Host[1].mac 	"simulated time" 	0.5
scalar EPL_etfa.Subnet1_Host[1].mac 	full-duplex 	1
scalar EPL_etfa.Subnet1_Host[1].mac 	"frames/sec sent" 	400
scalar EPL_etfa.Subnet1_Host[1].mac 	"frames/sec rcvd" 	13000
scalar EPL_etfa.Subnet1_Host[1].mac 	"bits/sec sent" 	204800
scalar EPL_etfa.Subnet1_Host[1].mac 	"bits/sec rcvd" 	6656000
scalar EPL_etfa.Subnet1_Host[1].mac 	"rx channel idle (%)" 	92.512
scalar EPL_etfa.Subnet1_Host[1].mac 	"rx channel utilization (%)" 	7.488
scalar EPL_etfa.Subnet1_Host[1].mac 	droppedPkNotForUs:count 	0
attr interpolationmode  none
attr source  dropPkNotForUs
attr title  "packets dropped/not for us, count"
scalar EPL_etfa.Subnet1_Host[1].mac 	droppedPkNotForUs:sum(packetBytes) 	0
attr interpolationmode  none
attr source  dropPkNotForUs
attr title  "packets dropped/not for us, sum(packetBytes)"
scalar EPL_etfa.Subnet1_Host[1].mac 	droppedPkBitError:count 	0
attr interpolationmode  none
attr source  dropPkBitError
attr title  "packets dropped/bit error, count"
scalar EPL_etfa.Subnet1_Host[1].mac 	droppedPkBitError:sum(packetBytes) 	0
attr interpolationmode  none
attr source  dropPkBitError
attr title  "packets dropped/bit error, sum(packetBytes)"
scalar EPL_etfa.Subnet1_Host[1].mac 	droppedPkIfaceDown:count 	0
attr interpolationmode  none
attr source  dropPkIfaceDown
attr title  "packets dropped/interface down, count"
scalar EPL_etfa.Subnet1_Host[1].mac 	droppedPkIfaceDown:sum(packetBytes) 	0
attr interpolationmode  none
attr source  dropPkIfaceDown
attr title  "packets dropped/interface down, sum(packetBytes)"
scalar EPL_etfa.Subnet1_Host[1].mac 	rxPkFromHL:count 	200
attr interpolationmode  none
attr source  rxPkFromHL
attr title  "packet bytes from higher layer, count"
scalar EPL_etfa.Subnet1_Host[1].mac 	rxPkFromHL:sum(packetBytes) 	12800
attr interpolationmode  none
attr source  rxPkFromHL
attr title  "packet bytes from higher layer, sum(packetBytes)"
scalar EPL_etfa.Subnet1_Host[1].mac 	rxPausePkUnits:count 	0
attr interpolationmode  none
attr title  "pause units received, count"
scalar EPL_etfa.Subnet1_Host[1].mac 	rxPausePkUnits:sum 	0
attr interpolationmode  none
attr title  "pause units received, sum"
scalar EPL_etfa.Subnet1_Host[1].mac 	txPausePkUnits:count 	0
attr interpolationmode  none
attr title  "pause units sent, count"
scalar EPL_etfa.Subnet1_Host[1].mac 	txPausePkUnits:sum 	0
attr interpolationmode  none
attr title  "pause units sent, sum"
scalar EPL_etfa.Subnet1_Host[1].mac 	passedUpPk:count 	6500
attr interpolationmode  none
attr source  packetSentToUpper
attr title  "packets passed to higher layer, count"
scalar EPL_etfa.Subnet1_Host[1].mac 	passedUpPk:sum(packetBytes) 	416000
attr interpolationmode  none
attr source  packetSentToUpper
attr title  "packets passed to higher layer, sum(packetBytes)"
scalar EPL_etfa.Subnet1_Host[1].mac 	rxPkOk:count 	6500
attr interpolationmode  none
attr source  rxPkOk
attr title  "packets received OK, count"
scalar EPL_etfa.Subnet1_Host[1].mac 	rxPkOk:sum(packetBytes) 	416000
attr interpolationmode  none
attr source  rxPkOk
attr title  "packets received OK, sum(packetBytes)"
scalar EPL_etfa.Subnet1_Host[1].mac 	txPk:count 	200
attr interpolationmode  none
attr source  txPk
attr title  "packets transmitted, count"
scalar EPL_etfa.Subnet1_Host[1].mac 	txPk:sum(packetBytes) 	12800
attr interpolationmode  none
attr source  txPk
attr title  "packets transmitted, sum(packetBytes)"
scalar EPL_etfa.Subnet1_Host[1].lpi_client 	linkPLPI_time:min 	0.004254959664
attr source  partial_lpi_time
scalar EPL_etfa.Subnet1_Host[1].lpi_client 	linkPLPI_time:max 	0.004254959664
attr source  partial_lpi_time
scalar EPL_etfa.Subnet1_Host[1].lpi_client 	linkPLPI_time:timeavg 	0.004254959664
attr source  partial_lpi_time
scalar EPL_etfa.Subnet1_Host[1].lpi_client 	linkLPI_time:min 	0.000107919997
attr source  lpi_time
scalar EPL_etfa.Subnet1_Host[1].lpi_client 	linkLPI_time:max 	0.000636540337
attr source  lpi_time
scalar EPL_etfa.Subnet1_Host[1].lpi_client 	linkLPI_time:timeavg 	0.00063125299237957
attr source  lpi_time
scalar EPL_etfa.Subnet1_Host[2].CN 	sentPk:count 	400
attr interpolationmode  none
attr source  sentPk
attr title  "packets sent, count"
scalar EPL_etfa.Subnet1_Host[2].CN 	sentPk:sum(packetBytes) 	4500
attr interpolationmode  none
attr source  sentPk
attr title  "packets sent, sum(packetBytes)"
scalar EPL_etfa.Subnet1_Host[2].CN 	rcvdPk:count 	100
attr interpolationmode  none
attr source  rcvdPk
attr title  "packets received, count"
scalar EPL_etfa.Subnet1_Host[2].CN 	rcvdPk:sum(packetBytes) 	100
attr interpolationmode  none
attr source  rcvdPk
attr title  "packets received, sum(packetBytes)"
scalar EPL_etfa.Subnet1_Host[2].llc 	pauseSent:count 	0
attr title  "pause sent, count"
scalar EPL_etfa.Subnet1_Host[2].llc 	pauseSent:sum 	0
attr title  "pause sent, sum"
scalar EPL_etfa.Subnet1_Host[2].llc 	decapPk:count 	6500
attr interpolationmode  none
attr source  decapPk
attr title  "packets decapsulated, count"
scalar EPL_etfa.Subnet1_Host[2].llc 	decapPk:sum(packetBytes) 	274900
attr interpolationmode  none
attr source  decapPk
attr title  "packets decapsulated, sum(packetBytes)"
scalar EPL_etfa.Subnet1_Host[2].llc 	encapPk:count 	200
attr interpolationmode  none
attr source  encapPk
attr title  "packets encapsulated, count"
scalar EPL_etfa.Subnet1_Host[2].llc 	encapPk:sum(packetBytes) 	4500
attr interpolationmode  none
attr source  encapPk
attr title  "packets encapsulated, sum(packetBytes)"
scalar EPL_etfa.Subnet1_Host[2].mac 	"simulated time" 	0.5
scalar EPL_etfa.Subnet1_Host[2].mac 	full-duplex 	1
scalar EPL_etfa.Subnet1_Host[2].mac 	"frames/sec sent" 	400
scalar EPL_etfa.Subnet1_Host[2].mac 	"frames/sec rcvd" 	13000
scalar EPL_etfa.Subnet1_Host[2].mac 	"bits/sec sent" 	204800
scalar EPL_etfa.Subnet1_Host[2].mac 	"bits/sec rcvd" 	6656000
scalar EPL_etfa.Subnet1_Host[2].mac 	"rx channel idle (%)" 	92.512
scalar EPL_etfa.Subnet1_Host[2].mac 	"rx channel utilization (%)" 	7.488
scalar EPL_etfa.Subnet1_Host[2].mac 	droppedPkNotForUs:count 	0
attr interpolationmode  none
attr source  dropPkNotForUs
attr title  "packets dropped/not for us, count"
scalar EPL_etfa.Subnet1_Host[2].mac 	droppedPkNotForUs:sum(packetBytes) 	0
attr interpolationmode  none
attr source  dropPkNotForUs
attr title  "packets dropped/not for us, sum(packetBytes)"
scalar EPL_etfa.Subnet1_Host[2].mac 	droppedPkBitError:count 	0
attr interpolationmode  none
attr source  dropPkBitError
attr title  "packets dropped/bit error, count"
scalar EPL_etfa.Subnet1_Host[2].mac 	droppedPkBitError:sum(packetBytes) 	0
attr interpolationmode  none
attr source  dropPkBitError
attr title  "packets dropped/bit error, sum(packetBytes)"
scalar EPL_etfa.Subnet1_Host[2].mac 	droppedPkIfaceDown:count 	0
attr interpolationmode  none
attr source  dropPkIfaceDown
attr title  "packets dropped/interface down, count"
scalar EPL_etfa.Subnet1_Host[2].mac 	droppedPkIfaceDown:sum(packetBytes) 	0
attr interpolationmode  none
attr source  dropPkIfaceDown
attr title  "packets dropped/interface down, sum(packetBytes)"
scalar EPL_etfa.Subnet1_Host[2].mac 	rxPkFromHL:count 	200
attr interpolationmode  none
attr source  rxPkFromHL
attr title  "packet bytes from higher layer, count"
scalar EPL_etfa.Subnet1_Host[2].mac 	rxPkFromHL:sum(packetBytes) 	12800
attr interpolationmode  none
attr source  rxPkFromHL
attr title  "packet bytes from higher layer, sum(packetBytes)"
scalar EPL_etfa.Subnet1_Host[2].mac 	rxPausePkUnits:count 	0
attr interpolationmode  none
attr title  "pause units received, count"
scalar EPL_etfa.Subnet1_Host[2].mac 	rxPausePkUnits:sum 	0
attr interpolationmode  none
attr title  "pause units received, sum"
scalar EPL_etfa.Subnet1_Host[2].mac 	txPausePkUnits:count 	0
attr interpolationmode  none
attr title  "pause units sent, count"
scalar EPL_etfa.Subnet1_Host[2].mac 	txPausePkUnits:sum 	0
attr interpolationmode  none
attr title  "pause units sent, sum"
scalar EPL_etfa.Subnet1_Host[2].mac 	passedUpPk:count 	6500
attr interpolationmode  none
attr source  packetSentToUpper
attr title  "packets passed to higher layer, count"
scalar EPL_etfa.Subnet1_Host[2].mac 	passedUpPk:sum(packetBytes) 	416000
attr interpolationmode  none
attr source  packetSentToUpper
attr title  "packets passed to higher layer, sum(packetBytes)"
scalar EPL_etfa.Subnet1_Host[2].mac 	rxPkOk:count 	6500
attr interpolationmode  none
attr source  rxPkOk
attr title  "packets received OK, count"
scalar EPL_etfa.Subnet1_Host[2].mac 	rxPkOk:sum(packetBytes) 	416000
attr interpolationmode  none
attr source  rxPkOk
attr title  "packets received OK, sum(packetBytes)"
scalar EPL_etfa.Subnet1_Host[2].mac 	txPk:count 	200
attr interpolationmode  none
attr source  txPk
attr title  "packets transmitted, count"
scalar EPL_etfa.Subnet1_Host[2].mac 	txPk:sum(packetBytes) 	12800
attr interpolationmode  none
attr source  txPk
attr title  "packets transmitted, sum(packetBytes)"
scalar EPL_etfa.Subnet1_Host[2].lpi_client 	linkPLPI_time:min 	0.004254959664
attr source  partial_lpi_time
scalar EPL_etfa.Subnet1_Host[2].lpi_client 	linkPLPI_time:max 	0.004254959664
attr source  partial_lpi_time
scalar EPL_etfa.Subnet1_Host[2].lpi_client 	linkPLPI_time:timeavg 	0.004254959664
attr source  partial_lpi_time
scalar EPL_etfa.Subnet1_Host[2].lpi_client 	linkLPI_time:min 	0.000107919997
attr source  lpi_time
scalar EPL_etfa.Subnet1_Host[2].lpi_client 	linkLPI_time:max 	0.000636540337
attr source  lpi_time
scalar EPL_etfa.Subnet1_Host[2].lpi_client 	linkLPI_time:timeavg 	0.00063125299237957
attr source  lpi_time
scalar EPL_etfa.Subnet1_Host[3].CN 	sentPk:count 	400
attr interpolationmode  none
attr source  sentPk
attr title  "packets sent, count"
scalar EPL_etfa.Subnet1_Host[3].CN 	sentPk:sum(packetBytes) 	4500
attr interpolationmode  none
attr source  sentPk
attr title  "packets sent, sum(packetBytes)"
scalar EPL_etfa.Subnet1_Host[3].CN 	rcvdPk:count 	100
attr interpolationmode  none
attr source  rcvdPk
attr title  "packets received, count"
scalar EPL_etfa.Subnet1_Host[3].CN 	rcvdPk:sum(packetBytes) 	100
attr interpolationmode  none
attr source  rcvdPk
attr title  "packets received, sum(packetBytes)"
scalar EPL_etfa.Subnet1_Host[3].llc 	pauseSent:count 	0
attr title  "pause sent, count"
scalar EPL_etfa.Subnet1_Host[3].llc 	pauseSent:sum 	0
attr title  "pause sent, sum"
scalar EPL_etfa.Subnet1_Host[3].llc 	decapPk:count 	6500
attr interpolationmode  none
attr source  decapPk
attr title  "packets decapsulated, count"
scalar EPL_etfa.Subnet1_Host[3].llc 	decapPk:sum(packetBytes) 	274900
attr interpolationmode  none
attr source  decapPk
attr title  "packets decapsulated, sum(packetBytes)"
scalar EPL_etfa.Subnet1_Host[3].llc 	encapPk:count 	200
attr interpolationmode  none
attr source  encapPk
attr title  "packets encapsulated, count"
scalar EPL_etfa.Subnet1_Host[3].llc 	encapPk:sum(packetBytes) 	4500
attr interpolationmode  none
attr source  encapPk
attr title  "packets encapsulated, sum(packetBytes)"
scalar EPL_etfa.Subnet1_Host[3].mac 	"simulated time" 	0.5
scalar EPL_etfa.Subnet1_Host[3].mac 	full-duplex 	1
scalar EPL_etfa.Subnet1_Host[3].mac 	"frames/sec sent" 	400
scalar EPL_etfa.Subnet1_Host[3].mac 	"frames/sec rcvd" 	13000
scalar EPL_etfa.Subnet1_Host[3].mac 	"bits/sec sent" 	204800
scalar EPL_etfa.Subnet1_Host[3].mac 	"bits/sec rcvd" 	6656000
scalar EPL_etfa.Subnet1_Host[3].mac 	"rx channel idle (%)" 	92.512
scalar EPL_etfa.Subnet1_Host[3].mac 	"rx channel utilization (%)" 	7.488
scalar EPL_etfa.Subnet1_Host[3].mac 	droppedPkNotForUs:count 	0
attr interpolationmode  none
attr source  dropPkNotForUs
attr title  "packets dropped/not for us, count"
scalar EPL_etfa.Subnet1_Host[3].mac 	droppedPkNotForUs:sum(packetBytes) 	0
attr interpolationmode  none
attr source  dropPkNotForUs
attr title  "packets dropped/not for us, sum(packetBytes)"
scalar EPL_etfa.Subnet1_Host[3].mac 	droppedPkBitError:count 	0
attr interpolationmode  none
attr source  dropPkBitError
attr title  "packets dropped/bit error, count"
scalar EPL_etfa.Subnet1_Host[3].mac 	droppedPkBitError:sum(packetBytes) 	0
attr interpolationmode  none
attr source  dropPkBitError
attr title  "packets dropped/bit error, sum(packetBytes)"
scalar EPL_etfa.Subnet1_Host[3].mac 	droppedPkIfaceDown:count 	0
attr interpolationmode  none
attr source  dropPkIfaceDown
attr title  "packets dropped/interface down, count"
scalar EPL_etfa.Subnet1_Host[3].mac 	droppedPkIfaceDown:sum(packetBytes) 	0
attr interpolationmode  none
attr source  dropPkIfaceDown
attr title  "packets dropped/interface down, sum(packetBytes)"
scalar EPL_etfa.Subnet1_Host[3].mac 	rxPkFromHL:count 	200
attr interpolationmode  none
attr source  rxPkFromHL
attr title  "packet bytes from higher layer, count"
scalar EPL_etfa.Subnet1_Host[3].mac 	rxPkFromHL:sum(packetBytes) 	12800
attr interpolationmode  none
attr source  rxPkFromHL
attr title  "packet bytes from higher layer, sum(packetBytes)"
scalar EPL_etfa.Subnet1_Host[3].mac 	rxPausePkUnits:count 	0
attr interpolationmode  none
attr title  "pause units received, count"
scalar EPL_etfa.Subnet1_Host[3].mac 	rxPausePkUnits:sum 	0
attr interpolationmode  none
attr title  "pause units received, sum"
scalar EPL_etfa.Subnet1_Host[3].mac 	txPausePkUnits:count 	0
attr interpolationmode  none
attr title  "pause units sent, count"
scalar EPL_etfa.Subnet1_Host[3].mac 	txPausePkUnits:sum 	0
attr interpolationmode  none
attr title  "pause units sent, sum"
scalar EPL_etfa.Subnet1_Host[3].mac 	passedUpPk:count 	6500
attr interpolationmode  none
attr source  packetSentToUpper
attr title  "packets passed to higher layer, count"
scalar EPL_etfa.Subnet1_Host[3].mac 	passedUpPk:sum(packetBytes) 	416000
attr interpolationmode  none
attr source  packetSentToUpper
attr title  "packets passed to higher layer, sum(packetBytes)"
scalar EPL_etfa.Subnet1_Host[3].mac 	rxPkOk:count 	6500
attr interpolationmode  none
attr source  rxPkOk
attr title  "packets received OK, count"
scalar EPL_etfa.Subnet1_Host[3].mac 	rxPkOk:sum(packetBytes) 	416000
attr interpolationmode  none
attr source  rxPkOk
attr title  "packets received OK, sum(packetBytes)"
scalar EPL_etfa.Subnet1_Host[3].mac 	txPk:count 	200
attr interpolationmode  none
attr source  txPk
attr title  "packets transmitted, count"
scalar EPL_etfa.Subnet1_Host[3].mac 	txPk:sum(packetBytes) 	12800
attr interpolationmode  none
attr source  txPk
attr title  "packets transmitted, sum(packetBytes)"
scalar EPL_etfa.Subnet1_Host[3].lpi_client 	linkPLPI_time:min 	0.004254959664
attr source  partial_lpi_time
scalar EPL_etfa.Subnet1_Host[3].lpi_client 	linkPLPI_time:max 	0.004254959664
attr source  partial_lpi_time
scalar EPL_etfa.Subnet1_Host[3].lpi_client 	linkPLPI_time:timeavg 	0.004254959664
attr source  partial_lpi_time
scalar EPL_etfa.Subnet1_Host[3].lpi_client 	linkLPI_time:min 	0.000107919997
attr source  lpi_time
scalar EPL_etfa.Subnet1_Host[3].lpi_client 	linkLPI_time:max 	0.000636540337
attr source  lpi_time
scalar EPL_etfa.Subnet1_Host[3].lpi_client 	linkLPI_time:timeavg 	0.00063125299237957
attr source  lpi_time
scalar EPL_etfa.Subnet1_Host[4].CN 	sentPk:count 	400
attr interpolationmode  none
attr source  sentPk
attr title  "packets sent, count"
scalar EPL_etfa.Subnet1_Host[4].CN 	sentPk:sum(packetBytes) 	4500
attr interpolationmode  none
attr source  sentPk
attr title  "packets sent, sum(packetBytes)"
scalar EPL_etfa.Subnet1_Host[4].CN 	rcvdPk:count 	100
attr interpolationmode  none
attr source  rcvdPk
attr title  "packets received, count"
scalar EPL_etfa.Subnet1_Host[4].CN 	rcvdPk:sum(packetBytes) 	100
attr interpolationmode  none
attr source  rcvdPk
attr title  "packets received, sum(packetBytes)"
scalar EPL_etfa.Subnet1_Host[4].llc 	pauseSent:count 	0
attr title  "pause sent, count"
scalar EPL_etfa.Subnet1_Host[4].llc 	pauseSent:sum 	0
attr title  "pause sent, sum"
scalar EPL_etfa.Subnet1_Host[4].llc 	decapPk:count 	6500
attr interpolationmode  none
attr source  decapPk
attr title  "packets decapsulated, count"
scalar EPL_etfa.Subnet1_Host[4].llc 	decapPk:sum(packetBytes) 	274900
attr interpolationmode  none
attr source  decapPk
attr title  "packets decapsulated, sum(packetBytes)"
scalar EPL_etfa.Subnet1_Host[4].llc 	encapPk:count 	200
attr interpolationmode  none
attr source  encapPk
attr title  "packets encapsulated, count"
scalar EPL_etfa.Subnet1_Host[4].llc 	encapPk:sum(packetBytes) 	4500
attr interpolationmode  none
attr source  encapPk
attr title  "packets encapsulated, sum(packetBytes)"
scalar EPL_etfa.Subnet1_Host[4].mac 	"simulated time" 	0.5
scalar EPL_etfa.Subnet1_Host[4].mac 	full-duplex 	1
scalar EPL_etfa.Subnet1_Host[4].mac 	"frames/sec sent" 	400
scalar EPL_etfa.Subnet1_Host[4].mac 	"frames/sec rcvd" 	13000
scalar EPL_etfa.Subnet1_Host[4].mac 	"bits/sec sent" 	204800
scalar EPL_etfa.Subnet1_Host[4].mac 	"bits/sec rcvd" 	6656000
scalar EPL_etfa.Subnet1_Host[4].mac 	"rx channel idle (%)" 	92.512
scalar EPL_etfa.Subnet1_Host[4].mac 	"rx channel utilization (%)" 	7.488
scalar EPL_etfa.Subnet1_Host[4].mac 	droppedPkNotForUs:count 	0
attr interpolationmode  none
attr source  dropPkNotForUs
attr title  "packets dropped/not for us, count"
scalar EPL_etfa.Subnet1_Host[4].mac 	droppedPkNotForUs:sum(packetBytes) 	0
attr interpolationmode  none
attr source  dropPkNotForUs
attr title  "packets dropped/not for us, sum(packetBytes)"
scalar EPL_etfa.Subnet1_Host[4].mac 	droppedPkBitError:count 	0
attr interpolationmode  none
attr source  dropPkBitError
attr title  "packets dropped/bit error, count"
scalar EPL_etfa.Subnet1_Host[4].mac 	droppedPkBitError:sum(packetBytes) 	0
attr interpolationmode  none
attr source  dropPkBitError
attr title  "packets dropped/bit error, sum(packetBytes)"
scalar EPL_etfa.Subnet1_Host[4].mac 	droppedPkIfaceDown:count 	0
attr interpolationmode  none
attr source  dropPkIfaceDown
attr title  "packets dropped/interface down, count"
scalar EPL_etfa.Subnet1_Host[4].mac 	droppedPkIfaceDown:sum(packetBytes) 	0
attr interpolationmode  none
attr source  dropPkIfaceDown
attr title  "packets dropped/interface down, sum(packetBytes)"
scalar EPL_etfa.Subnet1_Host[4].mac 	rxPkFromHL:count 	200
attr interpolationmode  none
attr source  rxPkFromHL
attr title  "packet bytes from higher layer, count"
scalar EPL_etfa.Subnet1_Host[4].mac 	rxPkFromHL:sum(packetBytes) 	12800
attr interpolationmode  none
attr source  rxPkFromHL
attr title  "packet bytes from higher layer, sum(packetBytes)"
scalar EPL_etfa.Subnet1_Host[4].mac 	rxPausePkUnits:count 	0
attr interpolationmode  none
attr title  "pause units received, count"
scalar EPL_etfa.Subnet1_Host[4].mac 	rxPausePkUnits:sum 	0
attr interpolationmode  none
attr title  "pause units received, sum"
scalar EPL_etfa.Subnet1_Host[4].mac 	txPausePkUnits:count 	0
attr interpolationmode  none
attr title  "pause units sent, count"
scalar EPL_etfa.Subnet1_Host[4].mac 	txPausePkUnits:sum 	0
attr interpolationmode  none
attr title  "pause units sent, sum"
scalar EPL_etfa.Subnet1_Host[4].mac 	passedUpPk:count 	6500
attr interpolationmode  none
attr source  packetSentToUpper
attr title  "packets passed to higher layer, count"
scalar EPL_etfa.Subnet1_Host[4].mac 	passedUpPk:sum(packetBytes) 	416000
attr interpolationmode  none
attr source  packetSentToUpper
attr title  "packets passed to higher layer, sum(packetBytes)"
scalar EPL_etfa.Subnet1_Host[4].mac 	rxPkOk:count 	6500
attr interpolationmode  none
attr source  rxPkOk
attr title  "packets received OK, count"
scalar EPL_etfa.Subnet1_Host[4].mac 	rxPkOk:sum(packetBytes) 	416000
attr interpolationmode  none
attr source  rxPkOk
attr title  "packets received OK, sum(packetBytes)"
scalar EPL_etfa.Subnet1_Host[4].mac 	txPk:count 	200
attr interpolationmode  none
attr source  txPk
attr title  "packets transmitted, count"
scalar EPL_etfa.Subnet1_Host[4].mac 	txPk:sum(packetBytes) 	12800
attr interpolationmode  none
attr source  txPk
attr title  "packets transmitted, sum(packetBytes)"
scalar EPL_etfa.Subnet1_Host[4].lpi_client 	linkPLPI_time:min 	0.004254959664
attr source  partial_lpi_time
scalar EPL_etfa.Subnet1_Host[4].lpi_client 	linkPLPI_time:max 	0.004254959664
attr source  partial_lpi_time
scalar EPL_etfa.Subnet1_Host[4].lpi_client 	linkPLPI_time:timeavg 	0.004254959664
attr source  partial_lpi_time
scalar EPL_etfa.Subnet1_Host[4].lpi_client 	linkLPI_time:min 	0.000107919997
attr source  lpi_time
scalar EPL_etfa.Subnet1_Host[4].lpi_client 	linkLPI_time:max 	0.000636540337
attr source  lpi_time
scalar EPL_etfa.Subnet1_Host[4].lpi_client 	linkLPI_time:timeavg 	0.00063125299237957
attr source  lpi_time
scalar EPL_etfa.Subnet1_Host[5].CN 	sentPk:count 	400
attr interpolationmode  none
attr source  sentPk
attr title  "packets sent, count"
scalar EPL_etfa.Subnet1_Host[5].CN 	sentPk:sum(packetBytes) 	4500
attr interpolationmode  none
attr source  sentPk
attr title  "packets sent, sum(packetBytes)"
scalar EPL_etfa.Subnet1_Host[5].CN 	rcvdPk:count 	100
attr interpolationmode  none
attr source  rcvdPk
attr title  "packets received, count"
scalar EPL_etfa.Subnet1_Host[5].CN 	rcvdPk:sum(packetBytes) 	100
attr interpolationmode  none
attr source  rcvdPk
attr title  "packets received, sum(packetBytes)"
scalar EPL_etfa.Subnet1_Host[5].llc 	pauseSent:count 	0
attr title  "pause sent, count"
scalar EPL_etfa.Subnet1_Host[5].llc 	pauseSent:sum 	0
attr title  "pause sent, sum"
scalar EPL_etfa.Subnet1_Host[5].llc 	decapPk:count 	6500
attr interpolationmode  none
attr source  decapPk
attr title  "packets decapsulated, count"
scalar EPL_etfa.Subnet1_Host[5].llc 	decapPk:sum(packetBytes) 	274900
attr interpolationmode  none
attr source  decapPk
attr title  "packets decapsulated, sum(packetBytes)"
scalar EPL_etfa.Subnet1_Host[5].llc 	encapPk:count 	200
attr interpolationmode  none
attr source  encapPk
attr title  "packets encapsulated, count"
scalar EPL_etfa.Subnet1_Host[5].llc 	encapPk:sum(packetBytes) 	4500
attr interpolationmode  none
attr source  encapPk
attr title  "packets encapsulated, sum(packetBytes)"
scalar EPL_etfa.Subnet1_Host[5].mac 	"simulated time" 	0.5
scalar EPL_etfa.Subnet1_Host[5].mac 	full-duplex 	1
scalar EPL_etfa.Subnet1_Host[5].mac 	"frames/sec sent" 	400
scalar EPL_etfa.Subnet1_Host[5].mac 	"frames/sec rcvd" 	13000
scalar EPL_etfa.Subnet1_Host[5].mac 	"bits/sec sent" 	204800
scalar EPL_etfa.Subnet1_Host[5].mac 	"bits/sec rcvd" 	6656000
scalar EPL_etfa.Subnet1_Host[5].mac 	"rx channel idle (%)" 	92.512
scalar EPL_etfa.Subnet1_Host[5].mac 	"rx channel utilization (%)" 	7.488
scalar EPL_etfa.Subnet1_Host[5].mac 	droppedPkNotForUs:count 	0
attr interpolationmode  none
attr source  dropPkNotForUs
attr title  "packets dropped/not for us, count"
scalar EPL_etfa.Subnet1_Host[5].mac 	droppedPkNotForUs:sum(packetBytes) 	0
attr interpolationmode  none
attr source  dropPkNotForUs
attr title  "packets dropped/not for us, sum(packetBytes)"
scalar EPL_etfa.Subnet1_Host[5].mac 	droppedPkBitError:count 	0
attr interpolationmode  none
attr source  dropPkBitError
attr title  "packets dropped/bit error, count"
scalar EPL_etfa.Subnet1_Host[5].mac 	droppedPkBitError:sum(packetBytes) 	0
attr interpolationmode  none
attr source  dropPkBitError
attr title  "packets dropped/bit error, sum(packetBytes)"
scalar EPL_etfa.Subnet1_Host[5].mac 	droppedPkIfaceDown:count 	0
attr interpolationmode  none
attr source  dropPkIfaceDown
attr title  "packets dropped/interface down, count"
scalar EPL_etfa.Subnet1_Host[5].mac 	droppedPkIfaceDown:sum(packetBytes) 	0
attr interpolationmode  none
attr source  dropPkIfaceDown
attr title  "packets dropped/interface down, sum(packetBytes)"
scalar EPL_etfa.Subnet1_Host[5].mac 	rxPkFromHL:count 	200
attr interpolationmode  none
attr source  rxPkFromHL
attr title  "packet bytes from higher layer, count"
scalar EPL_etfa.Subnet1_Host[5].mac 	rxPkFromHL:sum(packetBytes) 	12800
attr interpolationmode  none
attr source  rxPkFromHL
attr title  "packet bytes from higher layer, sum(packetBytes)"
scalar EPL_etfa.Subnet1_Host[5].mac 	rxPausePkUnits:count 	0
attr interpolationmode  none
attr title  "pause units received, count"
scalar EPL_etfa.Subnet1_Host[5].mac 	rxPausePkUnits:sum 	0
attr interpolationmode  none
attr title  "pause units received, sum"
scalar EPL_etfa.Subnet1_Host[5].mac 	txPausePkUnits:count 	0
attr interpolationmode  none
attr title  "pause units sent, count"
scalar EPL_etfa.Subnet1_Host[5].mac 	txPausePkUnits:sum 	0
attr interpolationmode  none
attr title  "pause units sent, sum"
scalar EPL_etfa.Subnet1_Host[5].mac 	passedUpPk:count 	6500
attr interpolationmode  none
attr source  packetSentToUpper
attr title  "packets passed to higher layer, count"
scalar EPL_etfa.Subnet1_Host[5].mac 	passedUpPk:sum(packetBytes) 	416000
attr interpolationmode  none
attr source  packetSentToUpper
attr title  "packets passed to higher layer, sum(packetBytes)"
scalar EPL_etfa.Subnet1_Host[5].mac 	rxPkOk:count 	6500
attr interpolationmode  none
attr source  rxPkOk
attr title  "packets received OK, count"
scalar EPL_etfa.Subnet1_Host[5].mac 	rxPkOk:sum(packetBytes) 	416000
attr interpolationmode  none
attr source  rxPkOk
attr title  "packets received OK, sum(packetBytes)"
scalar EPL_etfa.Subnet1_Host[5].mac 	txPk:count 	200
attr interpolationmode  none
attr source  txPk
attr title  "packets transmitted, count"
scalar EPL_etfa.Subnet1_Host[5].mac 	txPk:sum(packetBytes) 	12800
attr interpolationmode  none
attr source  txPk
attr title  "packets transmitted, sum(packetBytes)"
scalar EPL_etfa.Subnet1_Host[5].lpi_client 	linkPLPI_time:min 	0.004254959664
attr source  partial_lpi_time
scalar EPL_etfa.Subnet1_Host[5].lpi_client 	linkPLPI_time:max 	0.004254959664
attr source  partial_lpi_time
scalar EPL_etfa.Subnet1_Host[5].lpi_client 	linkPLPI_time:timeavg 	0.004254959664
attr source  partial_lpi_time
scalar EPL_etfa.Subnet1_Host[5].lpi_client 	linkLPI_time:min 	0.000107919997
attr source  lpi_time
scalar EPL_etfa.Subnet1_Host[5].lpi_client 	linkLPI_time:max 	0.000636540337
attr source  lpi_time
scalar EPL_etfa.Subnet1_Host[5].lpi_client 	linkLPI_time:timeavg 	0.00063125299237957
attr source  lpi_time
scalar EPL_etfa.Subnet1_Host[6].CN 	sentPk:count 	400
attr interpolationmode  none
attr source  sentPk
attr title  "packets sent, count"
scalar EPL_etfa.Subnet1_Host[6].CN 	sentPk:sum(packetBytes) 	4500
attr interpolationmode  none
attr source  sentPk
attr title  "packets sent, sum(packetBytes)"
scalar EPL_etfa.Subnet1_Host[6].CN 	rcvdPk:count 	100
attr interpolationmode  none
attr source  rcvdPk
attr title  "packets received, count"
scalar EPL_etfa.Subnet1_Host[6].CN 	rcvdPk:sum(packetBytes) 	100
attr interpolationmode  none
attr source  rcvdPk
attr title  "packets received, sum(packetBytes)"
scalar EPL_etfa.Subnet1_Host[6].llc 	pauseSent:count 	0
attr title  "pause sent, count"
scalar EPL_etfa.Subnet1_Host[6].llc 	pauseSent:sum 	0
attr title  "pause sent, sum"
scalar EPL_etfa.Subnet1_Host[6].llc 	decapPk:count 	6500
attr interpolationmode  none
attr source  decapPk
attr title  "packets decapsulated, count"
scalar EPL_etfa.Subnet1_Host[6].llc 	decapPk:sum(packetBytes) 	274900
attr interpolationmode  none
attr source  decapPk
attr title  "packets decapsulated, sum(packetBytes)"
scalar EPL_etfa.Subnet1_Host[6].llc 	encapPk:count 	200
attr interpolationmode  none
attr source  encapPk
attr title  "packets encapsulated, count"
scalar EPL_etfa.Subnet1_Host[6].llc 	encapPk:sum(packetBytes) 	4500
attr interpolationmode  none
attr source  encapPk
attr title  "packets encapsulated, sum(packetBytes)"
scalar EPL_etfa.Subnet1_Host[6].mac 	"simulated time" 	0.5
scalar EPL_etfa.Subnet1_Host[6].mac 	full-duplex 	1
scalar EPL_etfa.Subnet1_Host[6].mac 	"frames/sec sent" 	400
scalar EPL_etfa.Subnet1_Host[6].mac 	"frames/sec rcvd" 	13000
scalar EPL_etfa.Subnet1_Host[6].mac 	"bits/sec sent" 	204800
scalar EPL_etfa.Subnet1_Host[6].mac 	"bits/sec rcvd" 	6656000
scalar EPL_etfa.Subnet1_Host[6].mac 	"rx channel idle (%)" 	92.512
scalar EPL_etfa.Subnet1_Host[6].mac 	"rx channel utilization (%)" 	7.488
scalar EPL_etfa.Subnet1_Host[6].mac 	droppedPkNotForUs:count 	0
attr interpolationmode  none
attr source  dropPkNotForUs
attr title  "packets dropped/not for us, count"
scalar EPL_etfa.Subnet1_Host[6].mac 	droppedPkNotForUs:sum(packetBytes) 	0
attr interpolationmode  none
attr source  dropPkNotForUs
attr title  "packets dropped/not for us, sum(packetBytes)"
scalar EPL_etfa.Subnet1_Host[6].mac 	droppedPkBitError:count 	0
attr interpolationmode  none
attr source  dropPkBitError
attr title  "packets dropped/bit error, count"
scalar EPL_etfa.Subnet1_Host[6].mac 	droppedPkBitError:sum(packetBytes) 	0
attr interpolationmode  none
attr source  dropPkBitError
attr title  "packets dropped/bit error, sum(packetBytes)"
scalar EPL_etfa.Subnet1_Host[6].mac 	droppedPkIfaceDown:count 	0
attr interpolationmode  none
attr source  dropPkIfaceDown
attr title  "packets dropped/interface down, count"
scalar EPL_etfa.Subnet1_Host[6].mac 	droppedPkIfaceDown:sum(packetBytes) 	0
attr interpolationmode  none
attr source  dropPkIfaceDown
attr title  "packets dropped/interface down, sum(packetBytes)"
scalar EPL_etfa.Subnet1_Host[6].mac 	rxPkFromHL:count 	200
attr interpolationmode  none
attr source  rxPkFromHL
attr title  "packet bytes from higher layer, count"
scalar EPL_etfa.Subnet1_Host[6].mac 	rxPkFromHL:sum(packetBytes) 	12800
attr interpolationmode  none
attr source  rxPkFromHL
attr title  "packet bytes from higher layer, sum(packetBytes)"
scalar EPL_etfa.Subnet1_Host[6].mac 	rxPausePkUnits:count 	0
attr interpolationmode  none
attr title  "pause units received, count"
scalar EPL_etfa.Subnet1_Host[6].mac 	rxPausePkUnits:sum 	0
attr interpolationmode  none
attr title  "pause units received, sum"
scalar EPL_etfa.Subnet1_Host[6].mac 	txPausePkUnits:count 	0
attr interpolationmode  none
attr title  "pause units sent, count"
scalar EPL_etfa.Subnet1_Host[6].mac 	txPausePkUnits:sum 	0
attr interpolationmode  none
attr title  "pause units sent, sum"
scalar EPL_etfa.Subnet1_Host[6].mac 	passedUpPk:count 	6500
attr interpolationmode  none
attr source  packetSentToUpper
attr title  "packets passed to higher layer, count"
scalar EPL_etfa.Subnet1_Host[6].mac 	passedUpPk:sum(packetBytes) 	416000
attr interpolationmode  none
attr source  packetSentToUpper
attr title  "packets passed to higher layer, sum(packetBytes)"
scalar EPL_etfa.Subnet1_Host[6].mac 	rxPkOk:count 	6500
attr interpolationmode  none
attr source  rxPkOk
attr title  "packets received OK, count"
scalar EPL_etfa.Subnet1_Host[6].mac 	rxPkOk:sum(packetBytes) 	416000
attr interpolationmode  none
attr source  rxPkOk
attr title  "packets received OK, sum(packetBytes)"
scalar EPL_etfa.Subnet1_Host[6].mac 	txPk:count 	200
attr interpolationmode  none
attr source  txPk
attr title  "packets transmitted, count"
scalar EPL_etfa.Subnet1_Host[6].mac 	txPk:sum(packetBytes) 	12800
attr interpolationmode  none
attr source  txPk
attr title  "packets transmitted, sum(packetBytes)"
scalar EPL_etfa.Subnet1_Host[6].lpi_client 	linkPLPI_time:min 	0.004254959664
attr source  partial_lpi_time
scalar EPL_etfa.Subnet1_Host[6].lpi_client 	linkPLPI_time:max 	0.004254959664
attr source  partial_lpi_time
scalar EPL_etfa.Subnet1_Host[6].lpi_client 	linkPLPI_time:timeavg 	0.004254959664
attr source  partial_lpi_time
scalar EPL_etfa.Subnet1_Host[6].lpi_client 	linkLPI_time:min 	0.000107919997
attr source  lpi_time
scalar EPL_etfa.Subnet1_Host[6].lpi_client 	linkLPI_time:max 	0.000636540337
attr source  lpi_time
scalar EPL_etfa.Subnet1_Host[6].lpi_client 	linkLPI_time:timeavg 	0.00063125299237957
attr source  lpi_time
scalar EPL_etfa.Subnet1_Host[7].CN 	sentPk:count 	400
attr interpolationmode  none
attr source  sentPk
attr title  "packets sent, count"
scalar EPL_etfa.Subnet1_Host[7].CN 	sentPk:sum(packetBytes) 	4500
attr interpolationmode  none
attr source  sentPk
attr title  "packets sent, sum(packetBytes)"
scalar EPL_etfa.Subnet1_Host[7].CN 	rcvdPk:count 	100
attr interpolationmode  none
attr source  rcvdPk
attr title  "packets received, count"
scalar EPL_etfa.Subnet1_Host[7].CN 	rcvdPk:sum(packetBytes) 	100
attr interpolationmode  none
attr source  rcvdPk
attr title  "packets received, sum(packetBytes)"
scalar EPL_etfa.Subnet1_Host[7].llc 	pauseSent:count 	0
attr title  "pause sent, count"
scalar EPL_etfa.Subnet1_Host[7].llc 	pauseSent:sum 	0
attr title  "pause sent, sum"
scalar EPL_etfa.Subnet1_Host[7].llc 	decapPk:count 	6500
attr interpolationmode  none
attr source  decapPk
attr title  "packets decapsulated, count"
scalar EPL_etfa.Subnet1_Host[7].llc 	decapPk:sum(packetBytes) 	274900
attr interpolationmode  none
attr source  decapPk
attr title  "packets decapsulated, sum(packetBytes)"
scalar EPL_etfa.Subnet1_Host[7].llc 	encapPk:count 	200
attr interpolationmode  none
attr source  encapPk
attr title  "packets encapsulated, count"
scalar EPL_etfa.Subnet1_Host[7].llc 	encapPk:sum(packetBytes) 	4500
attr interpolationmode  none
attr source  encapPk
attr title  "packets encapsulated, sum(packetBytes)"
scalar EPL_etfa.Subnet1_Host[7].mac 	"simulated time" 	0.5
scalar EPL_etfa.Subnet1_Host[7].mac 	full-duplex 	1
scalar EPL_etfa.Subnet1_Host[7].mac 	"frames/sec sent" 	400
scalar EPL_etfa.Subnet1_Host[7].mac 	"frames/sec rcvd" 	13000
scalar EPL_etfa.Subnet1_Host[7].mac 	"bits/sec sent" 	204800
scalar EPL_etfa.Subnet1_Host[7].mac 	"bits/sec rcvd" 	6656000
scalar EPL_etfa.Subnet1_Host[7].mac 	"rx channel idle (%)" 	92.512
scalar EPL_etfa.Subnet1_Host[7].mac 	"rx channel utilization (%)" 	7.488
scalar EPL_etfa.Subnet1_Host[7].mac 	droppedPkNotForUs:count 	0
attr interpolationmode  none
attr source  dropPkNotForUs
attr title  "packets dropped/not for us, count"
scalar EPL_etfa.Subnet1_Host[7].mac 	droppedPkNotForUs:sum(packetBytes) 	0
attr interpolationmode  none
attr source  dropPkNotForUs
attr title  "packets dropped/not for us, sum(packetBytes)"
scalar EPL_etfa.Subnet1_Host[7].mac 	droppedPkBitError:count 	0
attr interpolationmode  none
attr source  dropPkBitError
attr title  "packets dropped/bit error, count"
scalar EPL_etfa.Subnet1_Host[7].mac 	droppedPkBitError:sum(packetBytes) 	0
attr interpolationmode  none
attr source  dropPkBitError
attr title  "packets dropped/bit error, sum(packetBytes)"
scalar EPL_etfa.Subnet1_Host[7].mac 	droppedPkIfaceDown:count 	0
attr interpolationmode  none
attr source  dropPkIfaceDown
attr title  "packets dropped/interface down, count"
scalar EPL_etfa.Subnet1_Host[7].mac 	droppedPkIfaceDown:sum(packetBytes) 	0
attr interpolationmode  none
attr source  dropPkIfaceDown
attr title  "packets dropped/interface down, sum(packetBytes)"
scalar EPL_etfa.Subnet1_Host[7].mac 	rxPkFromHL:count 	200
attr interpolationmode  none
attr source  rxPkFromHL
attr title  "packet bytes from higher layer, count"
scalar EPL_etfa.Subnet1_Host[7].mac 	rxPkFromHL:sum(packetBytes) 	12800
attr interpolationmode  none
attr source  rxPkFromHL
attr title  "packet bytes from higher layer, sum(packetBytes)"
scalar EPL_etfa.Subnet1_Host[7].mac 	rxPausePkUnits:count 	0
attr interpolationmode  none
attr title  "pause units received, count"
scalar EPL_etfa.Subnet1_Host[7].mac 	rxPausePkUnits:sum 	0
attr interpolationmode  none
attr title  "pause units received, sum"
scalar EPL_etfa.Subnet1_Host[7].mac 	txPausePkUnits:count 	0
attr interpolationmode  none
attr title  "pause units sent, count"
scalar EPL_etfa.Subnet1_Host[7].mac 	txPausePkUnits:sum 	0
attr interpolationmode  none
attr title  "pause units sent, sum"
scalar EPL_etfa.Subnet1_Host[7].mac 	passedUpPk:count 	6500
attr interpolationmode  none
attr source  packetSentToUpper
attr title  "packets passed to higher layer, count"
scalar EPL_etfa.Subnet1_Host[7].mac 	passedUpPk:sum(packetBytes) 	416000
attr interpolationmode  none
attr source  packetSentToUpper
attr title  "packets passed to higher layer, sum(packetBytes)"
scalar EPL_etfa.Subnet1_Host[7].mac 	rxPkOk:count 	6500
attr interpolationmode  none
attr source  rxPkOk
attr title  "packets received OK, count"
scalar EPL_etfa.Subnet1_Host[7].mac 	rxPkOk:sum(packetBytes) 	416000
attr interpolationmode  none
attr source  rxPkOk
attr title  "packets received OK, sum(packetBytes)"
scalar EPL_etfa.Subnet1_Host[7].mac 	txPk:count 	200
attr interpolationmode  none
attr source  txPk
attr title  "packets transmitted, count"
scalar EPL_etfa.Subnet1_Host[7].mac 	txPk:sum(packetBytes) 	12800
attr interpolationmode  none
attr source  txPk
attr title  "packets transmitted, sum(packetBytes)"
scalar EPL_etfa.Subnet1_Host[7].lpi_client 	linkPLPI_time:min 	0.004254959664
attr source  partial_lpi_time
scalar EPL_etfa.Subnet1_Host[7].lpi_client 	linkPLPI_time:max 	0.004254959664
attr source  partial_lpi_time
scalar EPL_etfa.Subnet1_Host[7].lpi_client 	linkPLPI_time:timeavg 	0.004254959664
attr source  partial_lpi_time
scalar EPL_etfa.Subnet1_Host[7].lpi_client 	linkLPI_time:min 	0.000107919997
attr source  lpi_time
scalar EPL_etfa.Subnet1_Host[7].lpi_client 	linkLPI_time:max 	0.000636540337
attr source  lpi_time
scalar EPL_etfa.Subnet1_Host[7].lpi_client 	linkLPI_time:timeavg 	0.00063125299237957
attr source  lpi_time
scalar EPL_etfa.Subnet1_Host[8].CN 	sentPk:count 	400
attr interpolationmode  none
attr source  sentPk
attr title  "packets sent, count"
scalar EPL_etfa.Subnet1_Host[8].CN 	sentPk:sum(packetBytes) 	4500
attr interpolationmode  none
attr source  sentPk
attr title  "packets sent, sum(packetBytes)"
scalar EPL_etfa.Subnet1_Host[8].CN 	rcvdPk:count 	100
attr interpolationmode  none
attr source  rcvdPk
attr title  "packets received, count"
scalar EPL_etfa.Subnet1_Host[8].CN 	rcvdPk:sum(packetBytes) 	100
attr interpolationmode  none
attr source  rcvdPk
attr title  "packets received, sum(packetBytes)"
scalar EPL_etfa.Subnet1_Host[8].llc 	pauseSent:count 	0
attr title  "pause sent, count"
scalar EPL_etfa.Subnet1_Host[8].llc 	pauseSent:sum 	0
attr title  "pause sent, sum"
scalar EPL_etfa.Subnet1_Host[8].llc 	decapPk:count 	6500
attr interpolationmode  none
attr source  decapPk
attr title  "packets decapsulated, count"
scalar EPL_etfa.Subnet1_Host[8].llc 	decapPk:sum(packetBytes) 	274900
attr interpolationmode  none
attr source  decapPk
attr title  "packets decapsulated, sum(packetBytes)"
scalar EPL_etfa.Subnet1_Host[8].llc 	encapPk:count 	200
attr interpolationmode  none
attr source  encapPk
attr title  "packets encapsulated, count"
scalar EPL_etfa.Subnet1_Host[8].llc 	encapPk:sum(packetBytes) 	4500
attr interpolationmode  none
attr source  encapPk
attr title  "packets encapsulated, sum(packetBytes)"
scalar EPL_etfa.Subnet1_Host[8].mac 	"simulated time" 	0.5
scalar EPL_etfa.Subnet1_Host[8].mac 	full-duplex 	1
scalar EPL_etfa.Subnet1_Host[8].mac 	"frames/sec sent" 	400
scalar EPL_etfa.Subnet1_Host[8].mac 	"frames/sec rcvd" 	13000
scalar EPL_etfa.Subnet1_Host[8].mac 	"bits/sec sent" 	204800
scalar EPL_etfa.Subnet1_Host[8].mac 	"bits/sec rcvd" 	6656000
scalar EPL_etfa.Subnet1_Host[8].mac 	"rx channel idle (%)" 	92.512
scalar EPL_etfa.Subnet1_Host[8].mac 	"rx channel utilization (%)" 	7.488
scalar EPL_etfa.Subnet1_Host[8].mac 	droppedPkNotForUs:count 	0
attr interpolationmode  none
attr source  dropPkNotForUs
attr title  "packets dropped/not for us, count"
scalar EPL_etfa.Subnet1_Host[8].mac 	droppedPkNotForUs:sum(packetBytes) 	0
attr interpolationmode  none
attr source  dropPkNotForUs
attr title  "packets dropped/not for us, sum(packetBytes)"
scalar EPL_etfa.Subnet1_Host[8].mac 	droppedPkBitError:count 	0
attr interpolationmode  none
attr source  dropPkBitError
attr title  "packets dropped/bit error, count"
scalar EPL_etfa.Subnet1_Host[8].mac 	droppedPkBitError:sum(packetBytes) 	0
attr interpolationmode  none
attr source  dropPkBitError
attr title  "packets dropped/bit error, sum(packetBytes)"
scalar EPL_etfa.Subnet1_Host[8].mac 	droppedPkIfaceDown:count 	0
attr interpolationmode  none
attr source  dropPkIfaceDown
attr title  "packets dropped/interface down, count"
scalar EPL_etfa.Subnet1_Host[8].mac 	droppedPkIfaceDown:sum(packetBytes) 	0
attr interpolationmode  none
attr source  dropPkIfaceDown
attr title  "packets dropped/interface down, sum(packetBytes)"
scalar EPL_etfa.Subnet1_Host[8].mac 	rxPkFromHL:count 	200
attr interpolationmode  none
attr source  rxPkFromHL
attr title  "packet bytes from higher layer, count"
scalar EPL_etfa.Subnet1_Host[8].mac 	rxPkFromHL:sum(packetBytes) 	12800
attr interpolationmode  none
attr source  rxPkFromHL
attr title  "packet bytes from higher layer, sum(packetBytes)"
scalar EPL_etfa.Subnet1_Host[8].mac 	rxPausePkUnits:count 	0
attr interpolationmode  none
attr title  "pause units received, count"
scalar EPL_etfa.Subnet1_Host[8].mac 	rxPausePkUnits:sum 	0
attr interpolationmode  none
attr title  "pause units received, sum"
scalar EPL_etfa.Subnet1_Host[8].mac 	txPausePkUnits:count 	0
attr interpolationmode  none
attr title  "pause units sent, count"
scalar EPL_etfa.Subnet1_Host[8].mac 	txPausePkUnits:sum 	0
attr interpolationmode  none
attr title  "pause units sent, sum"
scalar EPL_etfa.Subnet1_Host[8].mac 	passedUpPk:count 	6500
attr interpolationmode  none
attr source  packetSentToUpper
attr title  "packets passed to higher layer, count"
scalar EPL_etfa.Subnet1_Host[8].mac 	passedUpPk:sum(packetBytes) 	416000
attr interpolationmode  none
attr source  packetSentToUpper
attr title  "packets passed to higher layer, sum(packetBytes)"
scalar EPL_etfa.Subnet1_Host[8].mac 	rxPkOk:count 	6500
attr interpolationmode  none
attr source  rxPkOk
attr title  "packets received OK, count"
scalar EPL_etfa.Subnet1_Host[8].mac 	rxPkOk:sum(packetBytes) 	416000
attr interpolationmode  none
attr source  rxPkOk
attr title  "packets received OK, sum(packetBytes)"
scalar EPL_etfa.Subnet1_Host[8].mac 	txPk:count 	200
attr interpolationmode  none
attr source  txPk
attr title  "packets transmitted, count"
scalar EPL_etfa.Subnet1_Host[8].mac 	txPk:sum(packetBytes) 	12800
attr interpolationmode  none
attr source  txPk
attr title  "packets transmitted, sum(packetBytes)"
scalar EPL_etfa.Subnet1_Host[8].lpi_client 	linkPLPI_time:min 	0.004254959664
attr source  partial_lpi_time
scalar EPL_etfa.Subnet1_Host[8].lpi_client 	linkPLPI_time:max 	0.004254959664
attr source  partial_lpi_time
scalar EPL_etfa.Subnet1_Host[8].lpi_client 	linkPLPI_time:timeavg 	0.004254959664
attr source  partial_lpi_time
scalar EPL_etfa.Subnet1_Host[8].lpi_client 	linkLPI_time:min 	0.000107919997
attr source  lpi_time
scalar EPL_etfa.Subnet1_Host[8].lpi_client 	linkLPI_time:max 	0.000636540337
attr source  lpi_time
scalar EPL_etfa.Subnet1_Host[8].lpi_client 	linkLPI_time:timeavg 	0.00063125299237957
attr source  lpi_time
scalar EPL_etfa.Subnet1_Host[9].CN 	sentPk:count 	400
attr interpolationmode  none
attr source  sentPk
attr title  "packets sent, count"
scalar EPL_etfa.Subnet1_Host[9].CN 	sentPk:sum(packetBytes) 	4500
attr interpolationmode  none
attr source  sentPk
attr title  "packets sent, sum(packetBytes)"
scalar EPL_etfa.Subnet1_Host[9].CN 	rcvdPk:count 	100
attr interpolationmode  none
attr source  rcvdPk
attr title  "packets received, count"
scalar EPL_etfa.Subnet1_Host[9].CN 	rcvdPk:sum(packetBytes) 	100
attr interpolationmode  none
attr source  rcvdPk
attr title  "packets received, sum(packetBytes)"
scalar EPL_etfa.Subnet1_Host[9].llc 	pauseSent:count 	0
attr title  "pause sent, count"
scalar EPL_etfa.Subnet1_Host[9].llc 	pauseSent:sum 	0
attr title  "pause sent, sum"
scalar EPL_etfa.Subnet1_Host[9].llc 	decapPk:count 	6500
attr interpolationmode  none
attr source  decapPk
attr title  "packets decapsulated, count"
scalar EPL_etfa.Subnet1_Host[9].llc 	decapPk:sum(packetBytes) 	274900
attr interpolationmode  none
attr source  decapPk
attr title  "packets decapsulated, sum(packetBytes)"
scalar EPL_etfa.Subnet1_Host[9].llc 	encapPk:count 	200
attr interpolationmode  none
attr source  encapPk
attr title  "packets encapsulated, count"
scalar EPL_etfa.Subnet1_Host[9].llc 	encapPk:sum(packetBytes) 	4500
attr interpolationmode  none
attr source  encapPk
attr title  "packets encapsulated, sum(packetBytes)"
scalar EPL_etfa.Subnet1_Host[9].mac 	"simulated time" 	0.5
scalar EPL_etfa.Subnet1_Host[9].mac 	full-duplex 	1
scalar EPL_etfa.Subnet1_Host[9].mac 	"frames/sec sent" 	400
scalar EPL_etfa.Subnet1_Host[9].mac 	"frames/sec rcvd" 	13000
scalar EPL_etfa.Subnet1_Host[9].mac 	"bits/sec sent" 	204800
scalar EPL_etfa.Subnet1_Host[9].mac 	"bits/sec rcvd" 	6656000
scalar EPL_etfa.Subnet1_Host[9].mac 	"rx channel idle (%)" 	92.512
scalar EPL_etfa.Subnet1_Host[9].mac 	"rx channel utilization (%)" 	7.488
scalar EPL_etfa.Subnet1_Host[9].mac 	droppedPkNotForUs:count 	0
attr interpolationmode  none
attr source  dropPkNotForUs
attr title  "packets dropped/not for us, count"
scalar EPL_etfa.Subnet1_Host[9].mac 	droppedPkNotForUs:sum(packetBytes) 	0
attr interpolationmode  none
attr source  dropPkNotForUs
attr title  "packets dropped/not for us, sum(packetBytes)"
scalar EPL_etfa.Subnet1_Host[9].mac 	droppedPkBitError:count 	0
attr interpolationmode  none
attr source  dropPkBitError
attr title  "packets dropped/bit error, count"
scalar EPL_etfa.Subnet1_Host[9].mac 	droppedPkBitError:sum(packetBytes) 	0
attr interpolationmode  none
attr source  dropPkBitError
attr title  "packets dropped/bit error, sum(packetBytes)"
scalar EPL_etfa.Subnet1_Host[9].mac 	droppedPkIfaceDown:count 	0
attr interpolationmode  none
attr source  dropPkIfaceDown
attr title  "packets dropped/interface down, count"
scalar EPL_etfa.Subnet1_Host[9].mac 	droppedPkIfaceDown:sum(packetBytes) 	0
attr interpolationmode  none
attr source  dropPkIfaceDown
attr title  "packets dropped/interface down, sum(packetBytes)"
scalar EPL_etfa.Subnet1_Host[9].mac 	rxPkFromHL:count 	200
attr interpolationmode  none
attr source  rxPkFromHL
attr title  "packet bytes from higher layer, count"
scalar EPL_etfa.Subnet1_Host[9].mac 	rxPkFromHL:sum(packetBytes) 	12800
attr interpolationmode  none
attr source  rxPkFromHL
attr title  "packet bytes from higher layer, sum(packetBytes)"
scalar EPL_etfa.Subnet1_Host[9].mac 	rxPausePkUnits:count 	0
attr interpolationmode  none
attr title  "pause units received, count"
scalar EPL_etfa.Subnet1_Host[9].mac 	rxPausePkUnits:sum 	0
attr interpolationmode  none
attr title  "pause units received, sum"
scalar EPL_etfa.Subnet1_Host[9].mac 	txPausePkUnits:count 	0
attr interpolationmode  none
attr title  "pause units sent, count"
scalar EPL_etfa.Subnet1_Host[9].mac 	txPausePkUnits:sum 	0
attr interpolationmode  none
attr title  "pause units sent, sum"
scalar EPL_etfa.Subnet1_Host[9].mac 	passedUpPk:count 	6500
attr interpolationmode  none
attr source  packetSentToUpper
attr title  "packets passed to higher layer, count"
scalar EPL_etfa.Subnet1_Host[9].mac 	passedUpPk:sum(packetBytes) 	416000
attr interpolationmode  none
attr source  packetSentToUpper
attr title  "packets passed to higher layer, sum(packetBytes)"
scalar EPL_etfa.Subnet1_Host[9].mac 	rxPkOk:count 	6500
attr interpolationmode  none
attr source  rxPkOk
attr title  "packets received OK, count"
scalar EPL_etfa.Subnet1_Host[9].mac 	rxPkOk:sum(packetBytes) 	416000
attr interpolationmode  none
attr source  rxPkOk
attr title  "packets received OK, sum(packetBytes)"
scalar EPL_etfa.Subnet1_Host[9].mac 	txPk:count 	200
attr interpolationmode  none
attr source  txPk
attr title  "packets transmitted, count"
scalar EPL_etfa.Subnet1_Host[9].mac 	txPk:sum(packetBytes) 	12800
attr interpolationmode  none
attr source  txPk
attr title  "packets transmitted, sum(packetBytes)"
scalar EPL_etfa.Subnet1_Host[9].lpi_client 	linkPLPI_time:min 	0.004254959664
attr source  partial_lpi_time
scalar EPL_etfa.Subnet1_Host[9].lpi_client 	linkPLPI_time:max 	0.004254959664
attr source  partial_lpi_time
scalar EPL_etfa.Subnet1_Host[9].lpi_client 	linkPLPI_time:timeavg 	0.004254959664
attr source  partial_lpi_time
scalar EPL_etfa.Subnet1_Host[9].lpi_client 	linkLPI_time:min 	0.000107919997
attr source  lpi_time
scalar EPL_etfa.Subnet1_Host[9].lpi_client 	linkLPI_time:max 	0.000636540337
attr source  lpi_time
scalar EPL_etfa.Subnet1_Host[9].lpi_client 	linkLPI_time:timeavg 	0.00063125299237957
attr source  lpi_time
scalar EPL_etfa.Subnet1_Host[10].CN 	sentPk:count 	400
attr interpolationmode  none
attr source  sentPk
attr title  "packets sent, count"
scalar EPL_etfa.Subnet1_Host[10].CN 	sentPk:sum(packetBytes) 	4500
attr interpolationmode  none
attr source  sentPk
attr title  "packets sent, sum(packetBytes)"
scalar EPL_etfa.Subnet1_Host[10].CN 	rcvdPk:count 	100
attr interpolationmode  none
attr source  rcvdPk
attr title  "packets received, count"
scalar EPL_etfa.Subnet1_Host[10].CN 	rcvdPk:sum(packetBytes) 	100
attr interpolationmode  none
attr source  rcvdPk
attr title  "packets received, sum(packetBytes)"
scalar EPL_etfa.Subnet1_Host[10].llc 	pauseSent:count 	0
attr title  "pause sent, count"
scalar EPL_etfa.Subnet1_Host[10].llc 	pauseSent:sum 	0
attr title  "pause sent, sum"
scalar EPL_etfa.Subnet1_Host[10].llc 	decapPk:count 	6500
attr interpolationmode  none
attr source  decapPk
attr title  "packets decapsulated, count"
scalar EPL_etfa.Subnet1_Host[10].llc 	decapPk:sum(packetBytes) 	274900
attr interpolationmode  none
attr source  decapPk
attr title  "packets decapsulated, sum(packetBytes)"
scalar EPL_etfa.Subnet1_Host[10].llc 	encapPk:count 	200
attr interpolationmode  none
attr source  encapPk
attr title  "packets encapsulated, count"
scalar EPL_etfa.Subnet1_Host[10].llc 	encapPk:sum(packetBytes) 	4500
attr interpolationmode  none
attr source  encapPk
attr title  "packets encapsulated, sum(packetBytes)"
scalar EPL_etfa.Subnet1_Host[10].mac 	"simulated time" 	0.5
scalar EPL_etfa.Subnet1_Host[10].mac 	full-duplex 	1
scalar EPL_etfa.Subnet1_Host[10].mac 	"frames/sec sent" 	400
scalar EPL_etfa.Subnet1_Host[10].mac 	"frames/sec rcvd" 	13000
scalar EPL_etfa.Subnet1_Host[10].mac 	"bits/sec sent" 	204800
scalar EPL_etfa.Subnet1_Host[10].mac 	"bits/sec rcvd" 	6656000
scalar EPL_etfa.Subnet1_Host[10].mac 	"rx channel idle (%)" 	92.512
scalar EPL_etfa.Subnet1_Host[10].mac 	"rx channel utilization (%)" 	7.488
scalar EPL_etfa.Subnet1_Host[10].mac 	droppedPkNotForUs:count 	0
attr interpolationmode  none
attr source  dropPkNotForUs
attr title  "packets dropped/not for us, count"
scalar EPL_etfa.Subnet1_Host[10].mac 	droppedPkNotForUs:sum(packetBytes) 	0
attr interpolationmode  none
attr source  dropPkNotForUs
attr title  "packets dropped/not for us, sum(packetBytes)"
scalar EPL_etfa.Subnet1_Host[10].mac 	droppedPkBitError:count 	0
attr interpolationmode  none
attr source  dropPkBitError
attr title  "packets dropped/bit error, count"
scalar EPL_etfa.Subnet1_Host[10].mac 	droppedPkBitError:sum(packetBytes) 	0
attr interpolationmode  none
attr source  dropPkBitError
attr title  "packets dropped/bit error, sum(packetBytes)"
scalar EPL_etfa.Subnet1_Host[10].mac 	droppedPkIfaceDown:count 	0
attr interpolationmode  none
attr source  dropPkIfaceDown
attr title  "packets dropped/interface down, count"
scalar EPL_etfa.Subnet1_Host[10].mac 	droppedPkIfaceDown:sum(packetBytes) 	0
attr interpolationmode  none
attr source  dropPkIfaceDown
attr title  "packets dropped/interface down, sum(packetBytes)"
scalar EPL_etfa.Subnet1_Host[10].mac 	rxPkFromHL:count 	200
attr interpolationmode  none
attr source  rxPkFromHL
attr title  "packet bytes from higher layer, count"
scalar EPL_etfa.Subnet1_Host[10].mac 	rxPkFromHL:sum(packetBytes) 	12800
attr interpolationmode  none
attr source  rxPkFromHL
attr title  "packet bytes from higher layer, sum(packetBytes)"
scalar EPL_etfa.Subnet1_Host[10].mac 	rxPausePkUnits:count 	0
attr interpolationmode  none
attr title  "pause units received, count"
scalar EPL_etfa.Subnet1_Host[10].mac 	rxPausePkUnits:sum 	0
attr interpolationmode  none
attr title  "pause units received, sum"
scalar EPL_etfa.Subnet1_Host[10].mac 	txPausePkUnits:count 	0
attr interpolationmode  none
attr title  "pause units sent, count"
scalar EPL_etfa.Subnet1_Host[10].mac 	txPausePkUnits:sum 	0
attr interpolationmode  none
attr title  "pause units sent, sum"
scalar EPL_etfa.Subnet1_Host[10].mac 	passedUpPk:count 	6500
attr interpolationmode  none
attr source  packetSentToUpper
attr title  "packets passed to higher layer, count"
scalar EPL_etfa.Subnet1_Host[10].mac 	passedUpPk:sum(packetBytes) 	416000
attr interpolationmode  none
attr source  packetSentToUpper
attr title  "packets passed to higher layer, sum(packetBytes)"
scalar EPL_etfa.Subnet1_Host[10].mac 	rxPkOk:count 	6500
attr interpolationmode  none
attr source  rxPkOk
attr title  "packets received OK, count"
scalar EPL_etfa.Subnet1_Host[10].mac 	rxPkOk:sum(packetBytes) 	416000
attr interpolationmode  none
attr source  rxPkOk
attr title  "packets received OK, sum(packetBytes)"
scalar EPL_etfa.Subnet1_Host[10].mac 	txPk:count 	200
attr interpolationmode  none
attr source  txPk
attr title  "packets transmitted, count"
scalar EPL_etfa.Subnet1_Host[10].mac 	txPk:sum(packetBytes) 	12800
attr interpolationmode  none
attr source  txPk
attr title  "packets transmitted, sum(packetBytes)"
scalar EPL_etfa.Subnet1_Host[10].lpi_client 	linkPLPI_time:min 	0.004254959664
attr source  partial_lpi_time
scalar EPL_etfa.Subnet1_Host[10].lpi_client 	linkPLPI_time:max 	0.004254959664
attr source  partial_lpi_time
scalar EPL_etfa.Subnet1_Host[10].lpi_client 	linkPLPI_time:timeavg 	0.004254959664
attr source  partial_lpi_time
scalar EPL_etfa.Subnet1_Host[10].lpi_client 	linkLPI_time:min 	0.000107919997
attr source  lpi_time
scalar EPL_etfa.Subnet1_Host[10].lpi_client 	linkLPI_time:max 	0.000636540337
attr source  lpi_time
scalar EPL_etfa.Subnet1_Host[10].lpi_client 	linkLPI_time:timeavg 	0.00063125299237957
attr source  lpi_time
scalar EPL_etfa.Subnet1_Host[11].CN 	sentPk:count 	400
attr interpolationmode  none
attr source  sentPk
attr title  "packets sent, count"
scalar EPL_etfa.Subnet1_Host[11].CN 	sentPk:sum(packetBytes) 	4500
attr interpolationmode  none
attr source  sentPk
attr title  "packets sent, sum(packetBytes)"
scalar EPL_etfa.Subnet1_Host[11].CN 	rcvdPk:count 	100
attr interpolationmode  none
attr source  rcvdPk
attr title  "packets received, count"
scalar EPL_etfa.Subnet1_Host[11].CN 	rcvdPk:sum(packetBytes) 	100
attr interpolationmode  none
attr source  rcvdPk
attr title  "packets received, sum(packetBytes)"
scalar EPL_etfa.Subnet1_Host[11].llc 	pauseSent:count 	0
attr title  "pause sent, count"
scalar EPL_etfa.Subnet1_Host[11].llc 	pauseSent:sum 	0
attr title  "pause sent, sum"
scalar EPL_etfa.Subnet1_Host[11].llc 	decapPk:count 	6500
attr interpolationmode  none
attr source  decapPk
attr title  "packets decapsulated, count"
scalar EPL_etfa.Subnet1_Host[11].llc 	decapPk:sum(packetBytes) 	274900
attr interpolationmode  none
attr source  decapPk
attr title  "packets decapsulated, sum(packetBytes)"
scalar EPL_etfa.Subnet1_Host[11].llc 	encapPk:count 	200
attr interpolationmode  none
attr source  encapPk
attr title  "packets encapsulated, count"
scalar EPL_etfa.Subnet1_Host[11].llc 	encapPk:sum(packetBytes) 	4500
attr interpolationmode  none
attr source  encapPk
attr title  "packets encapsulated, sum(packetBytes)"
scalar EPL_etfa.Subnet1_Host[11].mac 	"simulated time" 	0.5
scalar EPL_etfa.Subnet1_Host[11].mac 	full-duplex 	1
scalar EPL_etfa.Subnet1_Host[11].mac 	"frames/sec sent" 	400
scalar EPL_etfa.Subnet1_Host[11].mac 	"frames/sec rcvd" 	13000
scalar EPL_etfa.Subnet1_Host[11].mac 	"bits/sec sent" 	204800
scalar EPL_etfa.Subnet1_Host[11].mac 	"bits/sec rcvd" 	6656000
scalar EPL_etfa.Subnet1_Host[11].mac 	"rx channel idle (%)" 	92.512
scalar EPL_etfa.Subnet1_Host[11].mac 	"rx channel utilization (%)" 	7.488
scalar EPL_etfa.Subnet1_Host[11].mac 	droppedPkNotForUs:count 	0
[...]
attr interpolationmode  none
attr source  dropPkNotForUs
attr title  "packets dropped/not for us, sum(packetBytes)"
scalar EPL_etfa.Subnet3_Host[16].mac 	droppedPkBitError:count 	0
attr interpolationmode  none
attr source  dropPkBitError
attr title  "packets dropped/bit error, count"
scalar EPL_etfa.Subnet3_Host[16].mac 	droppedPkBitError:sum(packetBytes) 	0
attr interpolationmode  none
attr source  dropPkBitError
attr title  "packets dropped/bit error, sum(packetBytes)"
scalar EPL_etfa.Subnet3_Host[16].mac 	droppedPkIfaceDown:count 	0
attr interpolationmode  none
attr source  dropPkIfaceDown
attr title  "packets dropped/interface down, count"
scalar EPL_etfa.Subnet3_Host[16].mac 	droppedPkIfaceDown:sum(packetBytes) 	0
attr interpolationmode  none
attr source  dropPkIfaceDown
attr title  "packets dropped/interface down, sum(packetBytes)"
scalar EPL_etfa.Subnet3_Host[16].mac 	rxPkFromHL:count 	200
attr interpolationmode  none
attr source  rxPkFromHL
attr title  "packet bytes from higher layer, count"
scalar EPL_etfa.Subnet3_Host[16].mac 	rxPkFromHL:sum(packetBytes) 	12800
attr interpolationmode  none
attr source  rxPkFromHL
attr title  "packet bytes from higher layer, sum(packetBytes)"
scalar EPL_etfa.Subnet3_Host[16].mac 	rxPausePkUnits:count 	0
attr interpolationmode  none
attr title  "pause units received, count"
scalar EPL_etfa.Subnet3_Host[16].mac 	rxPausePkUnits:sum 	0
attr interpolationmode  none
attr title  "pause units received, sum"
scalar EPL_etfa.Subnet3_Host[16].mac 	txPausePkUnits:count 	0
attr interpolationmode  none
attr title  "pause units sent, count"
scalar EPL_etfa.Subnet3_Host[16].mac 	txPausePkUnits:sum 	0
attr interpolationmode  none
attr title  "pause units sent, sum"
scalar EPL_etfa.Subnet3_Host[16].mac 	passedUpPk:count 	6500
attr interpolationmode  none
attr source  packetSentToUpper
attr title  "packets passed to higher layer, count"
scalar EPL_etfa.Subnet3_Host[16].mac 	passedUpPk:sum(packetBytes) 	416000
attr interpolationmode  none
attr source  packetSentToUpper
attr title  "packets passed to higher layer, sum(packetBytes)"
scalar EPL_etfa.Subnet3_Host[16].mac 	rxPkOk:count 	6500
attr interpolationmode  none
attr source  rxPkOk
attr title  "packets received OK, count"
scalar EPL_etfa.Subnet3_Host[16].mac 	rxPkOk:sum(packetBytes) 	416000
attr interpolationmode  none
attr source  rxPkOk
attr title  "packets received OK, sum(packetBytes)"
scalar EPL_etfa.Subnet3_Host[16].mac 	txPk:count 	200
attr interpolationmode  none
attr source  txPk
attr title  "packets transmitted, count"
scalar EPL_etfa.Subnet3_Host[16].mac 	txPk:sum(packetBytes) 	12800
attr interpolationmode  none
attr source  txPk
attr title  "packets transmitted, sum(packetBytes)"
scalar EPL_etfa.Subnet3_Host[16].lpi_client 	linkPLPI_time:min 	0.004254959664
attr source  partial_lpi_time
scalar EPL_etfa.Subnet3_Host[16].lpi_client 	linkPLPI_time:max 	0.004254959664
attr source  partial_lpi_time
scalar EPL_etfa.Subnet3_Host[16].lpi_client 	linkPLPI_time:timeavg 	0.004254959664
attr source  partial_lpi_time
scalar EPL_etfa.Subnet3_Host[16].lpi_client 	linkLPI_time:min 	0.000107919997
attr source  lpi_time
scalar EPL_etfa.Subnet3_Host[16].lpi_client 	linkLPI_time:max 	0.000636540337
attr source  lpi_time
scalar EPL_etfa.Subnet3_Host[16].lpi_client 	linkLPI_time:timeavg 	0.00063125299237957
attr source  lpi_time
scalar EPL_etfa.Subnet3_Host[17].CN 	sentPk:count 	400
attr interpolationmode  none
attr source  sentPk
attr title  "packets sent, count"
scalar EPL_etfa.Subnet3_Host[17].CN 	sentPk:sum(packetBytes) 	4500
attr interpolationmode  none
attr source  sentPk
attr title  "packets sent, sum(packetBytes)"
scalar EPL_etfa.Subnet3_Host[17].CN 	rcvdPk:count 	100
attr interpolationmode  none
attr source  rcvdPk
attr title  "packets received, count"
scalar EPL_etfa.Subnet3_Host[17].CN 	rcvdPk:sum(packetBytes) 	100
attr interpolationmode  none
attr source  rcvdPk
attr title  "packets received, sum(packetBytes)"
scalar EPL_etfa.Subnet3_Host[17].llc 	pauseSent:count 	0
attr title  "pause sent, count"
scalar EPL_etfa.Subnet3_Host[17].llc 	pauseSent:sum 	0
attr title  "pause sent, sum"
scalar EPL_etfa.Subnet3_Host[17].llc 	decapPk:count 	6500
attr interpolationmode  none
attr source  decapPk
attr title  "packets decapsulated, count"
scalar EPL_etfa.Subnet3_Host[17].llc 	decapPk:sum(packetBytes) 	274900
attr interpolationmode  none
attr source  decapPk
attr title  "packets decapsulated, sum(packetBytes)"
scalar EPL_etfa.Subnet3_Host[17].llc 	encapPk:count 	200
attr interpolationmode  none
attr source  encapPk
attr title  "packets encapsulated, count"
scalar EPL_etfa.Subnet3_Host[17].llc 	encapPk:sum(packetBytes) 	4500
attr interpolationmode  none
attr source  encapPk
attr title  "packets encapsulated, sum(packetBytes)"
scalar EPL_etfa.Subnet3_Host[17].mac 	"simulated time" 	0.5
scalar EPL_etfa.Subnet3_Host[17].mac 	full-duplex 	1
scalar EPL_etfa.Subnet3_Host[17].mac 	"frames/sec sent" 	400
scalar EPL_etfa.Subnet3_Host[17].mac 	"frames/sec rcvd" 	13000
scalar EPL_etfa.Subnet3_Host[17].mac 	"bits/sec sent" 	204800
scalar EPL_etfa.Subnet3_Host[17].mac 	"bits/sec rcvd" 	6656000
scalar EPL_etfa.Subnet3_Host[17].mac 	"rx channel idle (%)" 	92.512
scalar EPL_etfa.Subnet3_Host[17].mac 	"rx channel utilization (%)" 	7.488
scalar EPL_etfa.Subnet3_Host[17].mac 	droppedPkNotForUs:count 	0
attr interpolationmode  none
attr source  dropPkNotForUs
attr title  "packets dropped/not for us, count"
scalar EPL_etfa.Subnet3_Host[17].mac 	droppedPkNotForUs:sum(packetBytes) 	0
attr interpolationmode  none
attr source  dropPkNotForUs
attr title  "packets dropped/not for us, sum(packetBytes)"
scalar EPL_etfa.Subnet3_Host[17].mac 	droppedPkBitError:count 	0
attr interpolationmode  none
attr source  dropPkBitError
attr title  "packets dropped/bit error, count"
scalar EPL_etfa.Subnet3_Host[17].mac 	droppedPkBitError:sum(packetBytes) 	0
attr interpolationmode  none
attr source  dropPkBitError
attr title  "packets dropped/bit error, sum(packetBytes)"
scalar EPL_etfa.Subnet3_Host[17].mac 	droppedPkIfaceDown:count 	0
attr interpolationmode  none
attr source  dropPkIfaceDown
attr title  "packets dropped/interface down, count"
scalar EPL_etfa.Subnet3_Host[17].mac 	droppedPkIfaceDown:sum(packetBytes) 	0
attr interpolationmode  none
attr source  dropPkIfaceDown
attr title  "packets dropped/interface down, sum(packetBytes)"
scalar EPL_etfa.Subnet3_Host[17].mac 	rxPkFromHL:count 	200
attr interpolationmode  none
attr source  rxPkFromHL
attr title  "packet bytes from higher layer, count"
scalar EPL_etfa.Subnet3_Host[17].mac 	rxPkFromHL:sum(packetBytes) 	12800
attr interpolationmode  none
attr source  rxPkFromHL
attr title  "packet bytes from higher layer, sum(packetBytes)"
scalar EPL_etfa.Subnet3_Host[17].mac 	rxPausePkUnits:count 	0
attr interpolationmode  none
attr title  "pause units received, count"
scalar EPL_etfa.Subnet3_Host[17].mac 	rxPausePkUnits:sum 	0
attr interpolationmode  none
attr title  "pause units received, sum"
scalar EPL_etfa.Subnet3_Host[17].mac 	txPausePkUnits:count 	0
attr interpolationmode  none
attr title  "pause units sent, count"
scalar EPL_etfa.Subnet3_Host[17].mac 	txPausePkUnits:sum 	0
attr interpolationmode  none
attr title  "pause units sent, sum"
scalar EPL_etfa.Subnet3_Host[17].mac 	passedUpPk:count 	6500
attr interpolationmode  none
attr source  packetSentToUpper
attr title  "packets passed to higher layer, count"
scalar EPL_etfa.Subnet3_Host[17].mac 	passedUpPk:sum(packetBytes) 	416000
attr interpolationmode  none
attr source  packetSentToUpper
attr title  "packets passed to higher layer, sum(packetBytes)"
scalar EPL_etfa.Subnet3_Host[17].mac 	rxPkOk:count 	6500
attr interpolationmode  none
attr source  rxPkOk
attr title  "packets received OK, count"
scalar EPL_etfa.Subnet3_Host[17].mac 	rxPkOk:sum(packetBytes) 	416000
attr interpolationmode  none
attr source  rxPkOk
attr title  "packets received OK, sum(packetBytes)"
scalar EPL_etfa.Subnet3_Host[17].mac 	txPk:count 	200
attr interpolationmode  none
attr source  txPk
attr title  "packets transmitted, count"
scalar EPL_etfa.Subnet3_Host[17].mac 	txPk:sum(packetBytes) 	12800
attr interpolationmode  none
attr source  txPk
attr title  "packets transmitted, sum(packetBytes)"
scalar EPL_etfa.Subnet3_Host[17].lpi_client 	linkPLPI_time:min 	0.004254959664
attr source  partial_lpi_time
scalar EPL_etfa.Subnet3_Host[17].lpi_client 	linkPLPI_time:max 	0.004254959664
attr source  partial_lpi_time
scalar EPL_etfa.Subnet3_Host[17].lpi_client 	linkPLPI_time:timeavg 	0.004254959664
attr source  partial_lpi_time
scalar EPL_etfa.Subnet3_Host[17].lpi_client 	linkLPI_time:min 	0.000107919997
attr source  lpi_time
scalar EPL_etfa.Subnet3_Host[17].lpi_client 	linkLPI_time:max 	0.000636540337
attr source  lpi_time
scalar EPL_etfa.Subnet3_Host[17].lpi_client 	linkLPI_time:timeavg 	0.00063125299237957
attr source  lpi_time
scalar EPL_etfa.Subnet3_Host[18].CN 	sentPk:count 	400
attr interpolationmode  none
attr source  sentPk
attr title  "packets sent, count"
scalar EPL_etfa.Subnet3_Host[18].CN 	sentPk:sum(packetBytes) 	4500
attr interpolationmode  none
attr source  sentPk
attr title  "packets sent, sum(packetBytes)"
scalar EPL_etfa.Subnet3_Host[18].CN 	rcvdPk:count 	100
attr interpolationmode  none
attr source  rcvdPk
attr title  "packets received, count"
scalar EPL_etfa.Subnet3_Host[18].CN 	rcvdPk:sum(packetBytes) 	100
attr interpolationmode  none
attr source  rcvdPk
attr title  "packets received, sum(packetBytes)"
scalar EPL_etfa.Subnet3_Host[18].llc 	pauseSent:count 	0
attr title  "pause sent, count"
scalar EPL_etfa.Subnet3_Host[18].llc 	pauseSent:sum 	0
attr title  "pause sent, sum"
scalar EPL_etfa.Subnet3_Host[18].llc 	decapPk:count 	6500
attr interpolationmode  none
attr source  decapPk
attr title  "packets decapsulated, count"
scalar EPL_etfa.Subnet3_Host[18].llc 	decapPk:sum(packetBytes) 	274900
attr interpolationmode  none
attr source  decapPk
attr title  "packets decapsulated, sum(packetBytes)"
scalar EPL_etfa.Subnet3_Host[18].llc 	encapPk:count 	200
attr interpolationmode  none
attr source  encapPk
attr title  "packets encapsulated, count"
scalar EPL_etfa.Subnet3_Host[18].llc 	encapPk:sum(packetBytes) 	4500
attr interpolationmode  none
attr source  encapPk
attr title  "packets encapsulated, sum(packetBytes)"
scalar EPL_etfa.Subnet3_Host[18].mac 	"simulated time" 	0.5
scalar EPL_etfa.Subnet3_Host[18].mac 	full-duplex 	1
scalar EPL_etfa.Subnet3_Host[18].mac 	"frames/sec sent" 	400
scalar EPL_etfa.Subnet3_Host[18].mac 	"frames/sec rcvd" 	13000
scalar EPL_etfa.Subnet3_Host[18].mac 	"bits/sec sent" 	204800
scalar EPL_etfa.Subnet3_Host[18].mac 	"bits/sec rcvd" 	6656000
scalar EPL_etfa.Subnet3_Host[18].mac 	"rx channel idle (%)" 	92.512
scalar EPL_etfa.Subnet3_Host[18].mac 	"rx channel utilization (%)" 	7.488
scalar EPL_etfa.Subnet3_Host[18].mac 	droppedPkNotForUs:count 	0
attr interpolationmode  none
attr source  dropPkNotForUs
attr title  "packets dropped/not for us, count"
scalar EPL_etfa.Subnet3_Host[18].mac 	droppedPkNotForUs:sum(packetBytes) 	0
attr interpolationmode  none
attr source  dropPkNotForUs
attr title  "packets dropped/not for us, sum(packetBytes)"
scalar EPL_etfa.Subnet3_Host[18].mac 	droppedPkBitError:count 	0
attr interpolationmode  none
attr source  dropPkBitError
attr title  "packets dropped/bit error, count"
scalar EPL_etfa.Subnet3_Host[18].mac 	droppedPkBitError:sum(packetBytes) 	0
attr interpolationmode  none
attr source  dropPkBitError
attr title  "packets dropped/bit error, sum(packetBytes)"
scalar EPL_etfa.Subnet3_Host[18].mac 	droppedPkIfaceDown:count 	0
attr interpolationmode  none
attr source  dropPkIfaceDown
attr title  "packets dropped/interface down, count"
scalar EPL_etfa.Subnet3_Host[18].mac 	droppedPkIfaceDown:sum(packetBytes) 	0
attr interpolationmode  none
attr source  dropPkIfaceDown
attr title  "packets dropped/interface down, sum(packetBytes)"
scalar EPL_etfa.Subnet3_Host[18].mac 	rxPkFromHL:count 	200
attr interpolationmode  none
attr source  rxPkFromHL
attr title  "packet bytes from higher layer, count"
scalar EPL_etfa.Subnet3_Host[18].mac 	rxPkFromHL:sum(packetBytes) 	12800
attr interpolationmode  none
attr source  rxPkFromHL
attr title  "packet bytes from higher layer, sum(packetBytes)"
scalar EPL_etfa.Subnet3_Host[18].mac 	rxPausePkUnits:count 	0
attr interpolationmode  none
attr title  "pause units received, count"
scalar EPL_etfa.Subnet3_Host[18].mac 	rxPausePkUnits:sum 	0
attr interpolationmode  none
attr title  "pause units received, sum"
scalar EPL_etfa.Subnet3_Host[18].mac 	txPausePkUnits:count 	0
attr interpolationmode  none
attr title  "pause units sent, count"
scalar EPL_etfa.Subnet3_Host[18].mac 	txPausePkUnits:sum 	0
attr interpolationmode  none
attr title  "pause units sent, sum"
scalar EPL_etfa.Subnet3_Host[18].mac 	passedUpPk:count 	6500
attr interpolationmode  none
attr source  packetSentToUpper
attr title  "packets passed to higher layer, count"
scalar EPL_etfa.Subnet3_Host[18].mac 	passedUpPk:sum(packetBytes) 	416000
attr interpolationmode  none
attr source  packetSentToUpper
attr title  "packets passed to higher layer, sum(packetBytes)"
scalar EPL_etfa.Subnet3_Host[18].mac 	rxPkOk:count 	6500
attr interpolationmode  none
attr source  rxPkOk
attr title  "packets received OK, count"
scalar EPL_etfa.Subnet3_Host[18].mac 	rxPkOk:sum(packetBytes) 	416000
attr interpolationmode  none
attr source  rxPkOk
attr title  "packets received OK, sum(packetBytes)"
scalar EPL_etfa.Subnet3_Host[18].mac 	txPk:count 	200
attr interpolationmode  none
attr source  txPk
attr title  "packets transmitted, count"
scalar EPL_etfa.Subnet3_Host[18].mac 	txPk:sum(packetBytes) 	12800
attr interpolationmode  none
attr source  txPk
attr title  "packets transmitted, sum(packetBytes)"
scalar EPL_etfa.Subnet3_Host[18].lpi_client 	linkPLPI_time:min 	0.004254959664
attr source  partial_lpi_time
scalar EPL_etfa.Subnet3_Host[18].lpi_client 	linkPLPI_time:max 	0.004254959664
attr source  partial_lpi_time
scalar EPL_etfa.Subnet3_Host[18].lpi_client 	linkPLPI_time:timeavg 	0.004254959664
attr source  partial_lpi_time
scalar EPL_etfa.Subnet3_Host[18].lpi_client 	linkLPI_time:min 	0.000107919997
attr source  lpi_time
scalar EPL_etfa.Subnet3_Host[18].lpi_client 	linkLPI_time:max 	0.000636540337
attr source  lpi_time
scalar EPL_etfa.Subnet3_Host[18].lpi_client 	linkLPI_time:timeavg 	0.00063125299237957
attr source  lpi_time
scalar EPL_etfa.Subnet3_Host[19].CN 	sentPk:count 	400
attr interpolationmode  none
attr source  sentPk
attr title  "packets sent, count"
scalar EPL_etfa.Subnet3_Host[19].CN 	sentPk:sum(packetBytes) 	4500
attr interpolationmode  none
attr source  sentPk
attr title  "packets sent, sum(packetBytes)"
scalar EPL_etfa.Subnet3_Host[19].CN 	rcvdPk:count 	100
attr interpolationmode  none
attr source  rcvdPk
attr title  "packets received, count"
scalar EPL_etfa.Subnet3_Host[19].CN 	rcvdPk:sum(packetBytes) 	100
attr interpolationmode  none
attr source  rcvdPk
attr title  "packets received, sum(packetBytes)"
scalar EPL_etfa.Subnet3_Host[19].llc 	pauseSent:count 	0
attr title  "pause sent, count"
scalar EPL_etfa.Subnet3_Host[19].llc 	pauseSent:sum 	0
attr title  "pause sent, sum"
scalar EPL_etfa.Subnet3_Host[19].llc 	decapPk:count 	6500
attr interpolationmode  none
attr source  decapPk
attr title  "packets decapsulated, count"
scalar EPL_etfa.Subnet3_Host[19].llc 	decapPk:sum(packetBytes) 	274900
attr interpolationmode  none
attr source  decapPk
attr title  "packets decapsulated, sum(packetBytes)"
scalar EPL_etfa.Subnet3_Host[19].llc 	encapPk:count 	200
attr interpolationmode  none
attr source  encapPk
attr title  "packets encapsulated, count"
scalar EPL_etfa.Subnet3_Host[19].llc 	encapPk:sum(packetBytes) 	4500
attr interpolationmode  none
attr source  encapPk
attr title  "packets encapsulated, sum(packetBytes)"
scalar EPL_etfa.Subnet3_Host[19].mac 	"simulated time" 	0.5
scalar EPL_etfa.Subnet3_Host[19].mac 	full-duplex 	1
scalar EPL_etfa.Subnet3_Host[19].mac 	"frames/sec sent" 	400
scalar EPL_etfa.Subnet3_Host[19].mac 	"frames/sec rcvd" 	13000
scalar EPL_etfa.Subnet3_Host[19].mac 	"bits/sec sent" 	204800
scalar EPL_etfa.Subnet3_Host[19].mac 	"bits/sec rcvd" 	6656000
scalar EPL_etfa.Subnet3_Host[19].mac 	"rx channel idle (%)" 	92.512
scalar EPL_etfa.Subnet3_Host[19].mac 	"rx channel utilization (%)" 	7.488
scalar EPL_etfa.Subnet3_Host[19].mac 	droppedPkNotForUs:count 	0
attr interpolationmode  none
attr source  dropPkNotForUs
attr title  "packets dropped/not for us, count"
scalar EPL_etfa.Subnet3_Host[19].mac 	droppedPkNotForUs:sum(packetBytes) 	0
attr interpolationmode  none
attr source  dropPkNotForUs
attr title  "packets dropped/not for us, sum(packetBytes)"
scalar EPL_etfa.Subnet3_Host[19].mac 	droppedPkBitError:count 	0
attr interpolationmode  none
attr source  dropPkBitError
attr title  "packets dropped/bit error, count"
scalar EPL_etfa.Subnet3_Host[19].mac 	droppedPkBitError:sum(packetBytes) 	0
attr interpolationmode  none
attr source  dropPkBitError
attr title  "packets dropped/bit error, sum(packetBytes)"
scalar EPL_etfa.Subnet3_Host[19].mac 	droppedPkIfaceDown:count 	0
attr interpolationmode  none
attr source  dropPkIfaceDown
attr title  "packets dropped/interface down, count"
scalar EPL_etfa.Subnet3_Host[19].mac 	droppedPkIfaceDown:sum(packetBytes) 	0
attr interpolationmode  none
attr source  dropPkIfaceDown
attr title  "packets dropped/interface down, sum(packetBytes)"
scalar EPL_etfa.Subnet3_Host[19].mac 	rxPkFromHL:count 	200
attr interpolationmode  none
attr source  rxPkFromHL
attr title  "packet bytes from higher layer, count"
scalar EPL_etfa.Subnet3_Host[19].mac 	rxPkFromHL:sum(packetBytes) 	12800
attr interpolationmode  none
attr source  rxPkFromHL
attr title  "packet bytes from higher layer, sum(packetBytes)"
scalar EPL_etfa.Subnet3_Host[19].mac 	rxPausePkUnits:count 	0
attr interpolationmode  none
attr title  "pause units received, count"
scalar EPL_etfa.Subnet3_Host[19].mac 	rxPausePkUnits:sum 	0
attr interpolationmode  none
attr title  "pause units received, sum"
scalar EPL_etfa.Subnet3_Host[19].mac 	txPausePkUnits:count 	0
attr interpolationmode  none
attr title  "pause units sent, count"
scalar EPL_etfa.Subnet3_Host[19].mac 	txPausePkUnits:sum 	0
attr interpolationmode  none
attr title  "pause units sent, sum"
scalar EPL_etfa.Subnet3_Host[19].mac 	passedUpPk:count 	6500
attr interpolationmode  none
attr source  packetSentToUpper
attr title  "packets passed to higher layer, count"
scalar EPL_etfa.Subnet3_Host[19].mac 	passedUpPk:sum(packetBytes) 	416000
attr interpolationmode  none
attr source  packetSentToUpper
attr title  "packets passed to higher layer, sum(packetBytes)"
scalar EPL_etfa.Subnet3_Host[19].mac 	rxPkOk:count 	6500
attr interpolationmode  none
attr source  rxPkOk
attr title  "packets received OK, count"
scalar EPL_etfa.Subnet3_Host[19].mac 	rxPkOk:sum(packetBytes) 	416000
attr interpolationmode  none
attr source  rxPkOk
attr title  "packets received OK, sum(packetBytes)"
scalar EPL_etfa.Subnet3_Host[19].mac 	txPk:count 	200
attr interpolationmode  none
attr source  txPk
attr title  "packets transmitted, count"
scalar EPL_etfa.Subnet3_Host[19].mac 	txPk:sum(packetBytes) 	12800
attr interpolationmode  none
attr source  txPk
attr title  "packets transmitted, sum(packetBytes)"
scalar EPL_etfa.Subnet3_Host[19].lpi_client 	linkPLPI_time:min 	0.004254959664
attr source  partial_lpi_time
scalar EPL_etfa.Subnet3_Host[19].lpi_client 	linkPLPI_time:max 	0.004254959664
attr source  partial_lpi_time
scalar EPL_etfa.Subnet3_Host[19].lpi_client 	linkPLPI_time:timeavg 	0.004254959664
attr source  partial_lpi_time
scalar EPL_etfa.Subnet3_Host[19].lpi_client 	linkLPI_time:min 	0.000107919997
attr source  lpi_time
scalar EPL_etfa.Subnet3_Host[19].lpi_client 	linkLPI_time:max 	0.000636540337
attr source  lpi_time
scalar EPL_etfa.Subnet3_Host[19].lpi_client 	linkLPI_time:timeavg 	0.00063125299237957
attr source  lpi_time
