version 2
run eee2_100M_intel-0-20140320-16:20:59-76857
attr configname eee2_100M_intel
attr datetime 20140320-16:20:59
attr experiment eee2_100M_intel
attr inifile EPL_tii2014.ini
attr iterationvars ""
attr iterationvars2 $repetition=0
attr measurement ""
attr network eeepowerlink.networks.EPL_tii2014
attr processid 76857
attr repetition 0
attr replication #0
attr resultdir results
attr runnumber 0
attr seedset 0

scalar EPL_tii2014.PLC.llc 	pauseSent:count 	0
attr title  "pause sent, count"
scalar EPL_tii2014.PLC.llc 	pauseSent:sum 	0
attr title  "pause sent, sum"
scalar EPL_tii2014.PLC.llc 	decapPk:count 	1251
attr interpolationmode  none
attr source  decapPk
attr title  "packets decapsulated, count"
scalar EPL_tii2014.PLC.llc 	decapPk:sum(packetBytes) 	56295
attr interpolationmode  none
attr source  decapPk
attr title  "packets decapsulated, sum(packetBytes)"
scalar EPL_tii2014.PLC.llc 	encapPk:count 	1417
attr interpolationmode  none
attr source  encapPk
attr title  "packets encapsulated, count"
scalar EPL_tii2014.PLC.llc 	encapPk:sum(packetBytes) 	1417
attr interpolationmode  none
attr source  encapPk
attr title  "packets encapsulated, sum(packetBytes)"
scalar EPL_tii2014.PLC.mac 	"simulated time" 	0.500002509997
scalar EPL_tii2014.PLC.mac 	full-duplex 	1
scalar EPL_tii2014.PLC.mac 	"frames/sec sent" 	2833.9857734084
scalar EPL_tii2014.PLC.mac 	"frames/sec rcvd" 	2501.9874400381
scalar EPL_tii2014.PLC.mac 	"bits/sec sent" 	1451000.7159851
scalar EPL_tii2014.PLC.mac 	"bits/sec rcvd" 	1281017.5692995
scalar EPL_tii2014.PLC.mac 	"rx channel idle (%)" 	98.558855234538
scalar EPL_tii2014.PLC.mac 	"rx channel utilization (%)" 	1.4411447654619
scalar EPL_tii2014.PLC.mac 	droppedPkNotForUs:count 	0
attr interpolationmode  none
attr source  dropPkNotForUs
attr title  "packets dropped/not for us, count"
scalar EPL_tii2014.PLC.mac 	droppedPkNotForUs:sum(packetBytes) 	0
attr interpolationmode  none
attr source  dropPkNotForUs
attr title  "packets dropped/not for us, sum(packetBytes)"
scalar EPL_tii2014.PLC.mac 	droppedPkBitError:count 	0
attr interpolationmode  none
attr source  dropPkBitError
attr title  "packets dropped/bit error, count"
scalar EPL_tii2014.PLC.mac 	droppedPkBitError:sum(packetBytes) 	0
attr interpolationmode  none
attr source  dropPkBitError
attr title  "packets dropped/bit error, sum(packetBytes)"
scalar EPL_tii2014.PLC.mac 	droppedPkIfaceDown:count 	0
attr interpolationmode  none
attr source  dropPkIfaceDown
attr title  "packets dropped/interface down, count"
scalar EPL_tii2014.PLC.mac 	droppedPkIfaceDown:sum(packetBytes) 	0
attr interpolationmode  none
attr source  dropPkIfaceDown
attr title  "packets dropped/interface down, sum(packetBytes)"
scalar EPL_tii2014.PLC.mac 	rxPkFromHL:count 	1417
attr interpolationmode  none
attr source  rxPkFromHL
attr title  "packet bytes from higher layer, count"
scalar EPL_tii2014.PLC.mac 	rxPkFromHL:sum(packetBytes) 	90688
attr interpolationmode  none
attr source  rxPkFromHL
attr title  "packet bytes from higher layer, sum(packetBytes)"
scalar EPL_tii2014.PLC.mac 	rxPausePkUnits:count 	0
attr interpolationmode  none
attr title  "pause units received, count"
scalar EPL_tii2014.PLC.mac 	rxPausePkUnits:sum 	0
attr interpolationmode  none
attr title  "pause units received, sum"
scalar EPL_tii2014.PLC.mac 	txPausePkUnits:count 	0
attr interpolationmode  none
attr title  "pause units sent, count"
scalar EPL_tii2014.PLC.mac 	txPausePkUnits:sum 	0
attr interpolationmode  none
attr title  "pause units sent, sum"
scalar EPL_tii2014.PLC.mac 	passedUpPk:count 	1251
attr interpolationmode  none
attr source  packetSentToUpper
attr title  "packets passed to higher layer, count"
scalar EPL_tii2014.PLC.mac 	passedUpPk:sum(packetBytes) 	80064
attr interpolationmode  none
attr source  packetSentToUpper
attr title  "packets passed to higher layer, sum(packetBytes)"
scalar EPL_tii2014.PLC.mac 	rxPkOk:count 	1251
attr interpolationmode  none
attr source  rxPkOk
attr title  "packets received OK, count"
scalar EPL_tii2014.PLC.mac 	rxPkOk:sum(packetBytes) 	80064
attr interpolationmode  none
attr source  rxPkOk
attr title  "packets received OK, sum(packetBytes)"
scalar EPL_tii2014.PLC.mac 	txPk:count 	1417
attr interpolationmode  none
attr source  txPk
attr title  "packets transmitted, count"
scalar EPL_tii2014.PLC.mac 	txPk:sum(packetBytes) 	90688
attr interpolationmode  none
attr source  txPk
attr title  "packets transmitted, sum(packetBytes)"
scalar EPL_tii2014.PLC.lpi_client 	linkPLPI_time:min 	0.000258
attr source  partial_lpi_time
scalar EPL_tii2014.PLC.lpi_client 	linkPLPI_time:max 	0.4279412985
attr source  partial_lpi_time
scalar EPL_tii2014.PLC.lpi_client 	linkPLPI_time:timeavg 	0.21397926078501
attr source  partial_lpi_time
scalar EPL_tii2014.PLC.lpi_client 	linkLPI_time:min 	6.840001e-06
attr source  lpi_time
scalar EPL_tii2014.PLC.lpi_client 	linkLPI_time:max 	0.001342830016
attr source  lpi_time
scalar EPL_tii2014.PLC.lpi_client 	linkLPI_time:timeavg 	7.7334680236462e-05
attr source  lpi_time
scalar EPL_tii2014.PLC.MN 	sentPk:count 	1417
attr interpolationmode  none
attr source  sentPk
attr title  "packets sent, count"
scalar EPL_tii2014.PLC.MN 	sentPk:sum(packetBytes) 	1417
attr interpolationmode  none
attr source  sentPk
attr title  "packets sent, sum(packetBytes)"
scalar EPL_tii2014.PLC.MN 	rcvdPk:count 	1251
attr interpolationmode  none
attr source  rcvdPk
attr title  "packets received, count"
scalar EPL_tii2014.PLC.MN 	rcvdPk:sum(packetBytes) 	56295
attr interpolationmode  none
attr source  rcvdPk
attr title  "packets received, sum(packetBytes)"
scalar EPL_tii2014.switch0.relayUnit 	"processed frames" 	2668
scalar EPL_tii2014.switch0.relayUnit 	"dropped frames" 	0
scalar EPL_tii2014.switch0.relayUnit 	droppedBytes:count 	0
attr title  "Dropped bytes, count"
scalar EPL_tii2014.switch0.relayUnit 	droppedBytes:sum 	0
attr title  "Dropped bytes, sum"
scalar EPL_tii2014.switch0.relayUnit 	processedBytes:count 	0
attr title  "Processed bytes, count"
scalar EPL_tii2014.switch0.relayUnit 	processedBytes:sum 	0
attr title  "Processed bytes, sum"
scalar EPL_tii2014.switch0.relayUnit 	usedBufferBytes:max 	nan
attr title  "Used buffer bytes, max"
scalar EPL_tii2014.switch0.relayUnit 	usedBufferBytes:timeavg 	nan
attr title  "Used buffer bytes, timeavg"
scalar EPL_tii2014.switch0.eth[0].mac 	"simulated time" 	0.500002509997
scalar EPL_tii2014.switch0.eth[0].mac 	full-duplex 	1
scalar EPL_tii2014.switch0.eth[0].mac 	"frames/sec sent" 	2501.9874400381
scalar EPL_tii2014.switch0.eth[0].mac 	"frames/sec rcvd" 	2833.9857734084
scalar EPL_tii2014.switch0.eth[0].mac 	"bits/sec sent" 	1281017.5692995
scalar EPL_tii2014.switch0.eth[0].mac 	"bits/sec rcvd" 	1451000.7159851
scalar EPL_tii2014.switch0.eth[0].mac 	"rx channel idle (%)" 	98.367624194517
scalar EPL_tii2014.switch0.eth[0].mac 	"rx channel utilization (%)" 	1.6323758054833
scalar EPL_tii2014.switch0.eth[0].mac 	droppedPkNotForUs:count 	0
attr interpolationmode  none
attr source  dropPkNotForUs
attr title  "packets dropped/not for us, count"
scalar EPL_tii2014.switch0.eth[0].mac 	droppedPkNotForUs:sum(packetBytes) 	0
attr interpolationmode  none
attr source  dropPkNotForUs
attr title  "packets dropped/not for us, sum(packetBytes)"
scalar EPL_tii2014.switch0.eth[0].mac 	droppedPkBitError:count 	0
attr interpolationmode  none
attr source  dropPkBitError
attr title  "packets dropped/bit error, count"
scalar EPL_tii2014.switch0.eth[0].mac 	droppedPkBitError:sum(packetBytes) 	0
attr interpolationmode  none
attr source  dropPkBitError
attr title  "packets dropped/bit error, sum(packetBytes)"
scalar EPL_tii2014.switch0.eth[0].mac 	droppedPkIfaceDown:count 	0
attr interpolationmode  none
attr source  dropPkIfaceDown
attr title  "packets dropped/interface down, count"
scalar EPL_tii2014.switch0.eth[0].mac 	droppedPkIfaceDown:sum(packetBytes) 	0
attr interpolationmode  none
attr source  dropPkIfaceDown
attr title  "packets dropped/interface down, sum(packetBytes)"
scalar EPL_tii2014.switch0.eth[0].mac 	rxPkFromHL:count 	1251
attr interpolationmode  none
attr source  rxPkFromHL
attr title  "packet bytes from higher layer, count"
scalar EPL_tii2014.switch0.eth[0].mac 	rxPkFromHL:sum(packetBytes) 	80064
attr interpolationmode  none
attr source  rxPkFromHL
attr title  "packet bytes from higher layer, sum(packetBytes)"
scalar EPL_tii2014.switch0.eth[0].mac 	rxPausePkUnits:count 	0
attr interpolationmode  none
attr title  "pause units received, count"
scalar EPL_tii2014.switch0.eth[0].mac 	rxPausePkUnits:sum 	0
attr interpolationmode  none
attr title  "pause units received, sum"
scalar EPL_tii2014.switch0.eth[0].mac 	txPausePkUnits:count 	0
attr interpolationmode  none
attr title  "pause units sent, count"
scalar EPL_tii2014.switch0.eth[0].mac 	txPausePkUnits:sum 	0
attr interpolationmode  none
attr title  "pause units sent, sum"
scalar EPL_tii2014.switch0.eth[0].mac 	passedUpPk:count 	1417
attr interpolationmode  none
attr source  packetSentToUpper
attr title  "packets passed to higher layer, count"
scalar EPL_tii2014.switch0.eth[0].mac 	passedUpPk:sum(packetBytes) 	90688
attr interpolationmode  none
attr source  packetSentToUpper
attr title  "packets passed to higher layer, sum(packetBytes)"
scalar EPL_tii2014.switch0.eth[0].mac 	rxPkOk:count 	1417
attr interpolationmode  none
attr source  rxPkOk
attr title  "packets received OK, count"
scalar EPL_tii2014.switch0.eth[0].mac 	rxPkOk:sum(packetBytes) 	90688
attr interpolationmode  none
attr source  rxPkOk
attr title  "packets received OK, sum(packetBytes)"
scalar EPL_tii2014.switch0.eth[0].mac 	txPk:count 	1251
attr interpolationmode  none
attr source  txPk
attr title  "packets transmitted, count"
scalar EPL_tii2014.switch0.eth[0].mac 	txPk:sum(packetBytes) 	80064
attr interpolationmode  none
attr source  txPk
attr title  "packets transmitted, sum(packetBytes)"
scalar EPL_tii2014.switch0.eth[0].lpi_client 	linkPLPI_time:min 	0.000258
attr source  partial_lpi_time
scalar EPL_tii2014.switch0.eth[0].lpi_client 	linkPLPI_time:max 	0.38190799875
attr source  partial_lpi_time
scalar EPL_tii2014.switch0.eth[0].lpi_client 	linkPLPI_time:timeavg 	0.19095636258319
attr source  partial_lpi_time
scalar EPL_tii2014.switch0.eth[0].lpi_client 	linkLPI_time:min 	6.840001e-06
attr source  lpi_time
scalar EPL_tii2014.switch0.eth[0].lpi_client 	linkLPI_time:max 	0.002642040001
attr source  lpi_time
scalar EPL_tii2014.switch0.eth[0].lpi_client 	linkLPI_time:timeavg 	7.5237098799079e-05
attr source  lpi_time
scalar EPL_tii2014.switch0.eth[1].mac 	"simulated time" 	0.500002509997
scalar EPL_tii2014.switch0.eth[1].mac 	full-duplex 	1
scalar EPL_tii2014.switch0.eth[1].mac 	"frames/sec sent" 	2831.9857834484
scalar EPL_tii2014.switch0.eth[1].mac 	"frames/sec rcvd" 	1679.9915664524
scalar EPL_tii2014.switch0.eth[1].mac 	"bits/sec sent" 	1449976.7211256
scalar EPL_tii2014.switch0.eth[1].mac 	"bits/sec rcvd" 	860155.68202364
scalar EPL_tii2014.switch0.eth[1].mac 	"rx channel idle (%)" 	99.032324857723
scalar EPL_tii2014.switch0.eth[1].mac 	"rx channel utilization (%)" 	0.96767514227659
scalar EPL_tii2014.switch0.eth[1].mac 	droppedPkNotForUs:count 	0
attr interpolationmode  none
attr source  dropPkNotForUs
attr title  "packets dropped/not for us, count"
scalar EPL_tii2014.switch0.eth[1].mac 	droppedPkNotForUs:sum(packetBytes) 	0
attr interpolationmode  none
attr source  dropPkNotForUs
attr title  "packets dropped/not for us, sum(packetBytes)"
scalar EPL_tii2014.switch0.eth[1].mac 	droppedPkBitError:count 	0
attr interpolationmode  none
attr source  dropPkBitError
attr title  "packets dropped/bit error, count"
scalar EPL_tii2014.switch0.eth[1].mac 	droppedPkBitError:sum(packetBytes) 	0
attr interpolationmode  none
attr source  dropPkBitError
attr title  "packets dropped/bit error, sum(packetBytes)"
scalar EPL_tii2014.switch0.eth[1].mac 	droppedPkIfaceDown:count 	0
attr interpolationmode  none
attr source  dropPkIfaceDown
attr title  "packets dropped/interface down, count"
scalar EPL_tii2014.switch0.eth[1].mac 	droppedPkIfaceDown:sum(packetBytes) 	0
attr interpolationmode  none
attr source  dropPkIfaceDown
attr title  "packets dropped/interface down, sum(packetBytes)"
scalar EPL_tii2014.switch0.eth[1].mac 	rxPkFromHL:count 	1416
attr interpolationmode  none
attr source  rxPkFromHL
attr title  "packet bytes from higher layer, count"
scalar EPL_tii2014.switch0.eth[1].mac 	rxPkFromHL:sum(packetBytes) 	90624
attr interpolationmode  none
attr source  rxPkFromHL
attr title  "packet bytes from higher layer, sum(packetBytes)"
scalar EPL_tii2014.switch0.eth[1].mac 	rxPausePkUnits:count 	0
attr interpolationmode  none
attr title  "pause units received, count"
scalar EPL_tii2014.switch0.eth[1].mac 	rxPausePkUnits:sum 	0
attr interpolationmode  none
attr title  "pause units received, sum"
scalar EPL_tii2014.switch0.eth[1].mac 	txPausePkUnits:count 	0
attr interpolationmode  none
attr title  "pause units sent, count"
scalar EPL_tii2014.switch0.eth[1].mac 	txPausePkUnits:sum 	0
attr interpolationmode  none
attr title  "pause units sent, sum"
scalar EPL_tii2014.switch0.eth[1].mac 	passedUpPk:count 	840
attr interpolationmode  none
attr source  packetSentToUpper
attr title  "packets passed to higher layer, count"
scalar EPL_tii2014.switch0.eth[1].mac 	passedUpPk:sum(packetBytes) 	53760
attr interpolationmode  none
attr source  packetSentToUpper
attr title  "packets passed to higher layer, sum(packetBytes)"
scalar EPL_tii2014.switch0.eth[1].mac 	rxPkOk:count 	840
attr interpolationmode  none
attr source  rxPkOk
attr title  "packets received OK, count"
scalar EPL_tii2014.switch0.eth[1].mac 	rxPkOk:sum(packetBytes) 	53760
attr interpolationmode  none
attr source  rxPkOk
attr title  "packets received OK, sum(packetBytes)"
scalar EPL_tii2014.switch0.eth[1].mac 	txPk:count 	1416
attr interpolationmode  none
attr source  txPk
attr title  "packets transmitted, count"
scalar EPL_tii2014.switch0.eth[1].mac 	txPk:sum(packetBytes) 	90624
attr interpolationmode  none
attr source  txPk
attr title  "packets transmitted, sum(packetBytes)"
scalar EPL_tii2014.switch0.eth[1].lpi_client 	linkPLPI_time:min 	0.000258
attr source  partial_lpi_time
scalar EPL_tii2014.switch0.eth[1].lpi_client 	linkPLPI_time:max 	0.419267878542
attr source  partial_lpi_time
scalar EPL_tii2014.switch0.eth[1].lpi_client 	linkPLPI_time:timeavg 	0.20970849511082
attr source  partial_lpi_time
scalar EPL_tii2014.switch0.eth[1].lpi_client 	linkLPI_time:min 	6.840001e-06
attr source  lpi_time
scalar EPL_tii2014.switch0.eth[1].lpi_client 	linkLPI_time:max 	0.001342830016
attr source  lpi_time
scalar EPL_tii2014.switch0.eth[1].lpi_client 	linkLPI_time:timeavg 	8.2933125650906e-05
attr source  lpi_time
scalar EPL_tii2014.switch0.eth[2].mac 	"simulated time" 	0.500002509997
scalar EPL_tii2014.switch0.eth[2].mac 	full-duplex 	1
scalar EPL_tii2014.switch0.eth[2].mac 	"frames/sec sent" 	2833.9857734084
scalar EPL_tii2014.switch0.eth[2].mac 	"frames/sec rcvd" 	821.99587358565
scalar EPL_tii2014.switch0.eth[2].mac 	"bits/sec sent" 	1451000.7159851
scalar EPL_tii2014.switch0.eth[2].mac 	"bits/sec rcvd" 	420861.88727585
scalar EPL_tii2014.switch0.eth[2].mac 	"rx channel idle (%)" 	99.526530376815
scalar EPL_tii2014.switch0.eth[2].mac 	"rx channel utilization (%)" 	0.47346962318533
scalar EPL_tii2014.switch0.eth[2].mac 	droppedPkNotForUs:count 	0
attr interpolationmode  none
attr source  dropPkNotForUs
attr title  "packets dropped/not for us, count"
scalar EPL_tii2014.switch0.eth[2].mac 	droppedPkNotForUs:sum(packetBytes) 	0
attr interpolationmode  none
attr source  dropPkNotForUs
attr title  "packets dropped/not for us, sum(packetBytes)"
scalar EPL_tii2014.switch0.eth[2].mac 	droppedPkBitError:count 	0
attr interpolationmode  none
attr source  dropPkBitError
attr title  "packets dropped/bit error, count"
scalar EPL_tii2014.switch0.eth[2].mac 	droppedPkBitError:sum(packetBytes) 	0
attr interpolationmode  none
attr source  dropPkBitError
attr title  "packets dropped/bit error, sum(packetBytes)"
scalar EPL_tii2014.switch0.eth[2].mac 	droppedPkIfaceDown:count 	0
attr interpolationmode  none
attr source  dropPkIfaceDown
attr title  "packets dropped/interface down, count"
scalar EPL_tii2014.switch0.eth[2].mac 	droppedPkIfaceDown:sum(packetBytes) 	0
attr interpolationmode  none
attr source  dropPkIfaceDown
attr title  "packets dropped/interface down, sum(packetBytes)"
scalar EPL_tii2014.switch0.eth[2].mac 	rxPkFromHL:count 	1417
attr interpolationmode  none
attr source  rxPkFromHL
attr title  "packet bytes from higher layer, count"
scalar EPL_tii2014.switch0.eth[2].mac 	rxPkFromHL:sum(packetBytes) 	90688
attr interpolationmode  none
attr source  rxPkFromHL
attr title  "packet bytes from higher layer, sum(packetBytes)"
scalar EPL_tii2014.switch0.eth[2].mac 	rxPausePkUnits:count 	0
attr interpolationmode  none
attr title  "pause units received, count"
scalar EPL_tii2014.switch0.eth[2].mac 	rxPausePkUnits:sum 	0
attr interpolationmode  none
attr title  "pause units received, sum"
scalar EPL_tii2014.switch0.eth[2].mac 	txPausePkUnits:count 	0
attr interpolationmode  none
attr title  "pause units sent, count"
scalar EPL_tii2014.switch0.eth[2].mac 	txPausePkUnits:sum 	0
attr interpolationmode  none
attr title  "pause units sent, sum"
scalar EPL_tii2014.switch0.eth[2].mac 	passedUpPk:count 	411
attr interpolationmode  none
attr source  packetSentToUpper
attr title  "packets passed to higher layer, count"
scalar EPL_tii2014.switch0.eth[2].mac 	passedUpPk:sum(packetBytes) 	26304
attr interpolationmode  none
attr source  packetSentToUpper
attr title  "packets passed to higher layer, sum(packetBytes)"
scalar EPL_tii2014.switch0.eth[2].mac 	rxPkOk:count 	411
attr interpolationmode  none
attr source  rxPkOk
attr title  "packets received OK, count"
scalar EPL_tii2014.switch0.eth[2].mac 	rxPkOk:sum(packetBytes) 	26304
attr interpolationmode  none
attr source  rxPkOk
attr title  "packets received OK, sum(packetBytes)"
scalar EPL_tii2014.switch0.eth[2].mac 	txPk:count 	1417
attr interpolationmode  none
attr source  txPk
attr title  "packets transmitted, count"
scalar EPL_tii2014.switch0.eth[2].mac 	txPk:sum(packetBytes) 	90688
attr interpolationmode  none
attr source  txPk
attr title  "packets transmitted, sum(packetBytes)"
scalar EPL_tii2014.switch0.eth[2].lpi_client 	linkPLPI_time:min 	0.000258
attr source  partial_lpi_time
scalar EPL_tii2014.switch0.eth[2].lpi_client 	linkPLPI_time:max 	0.424018918626
attr source  partial_lpi_time
scalar EPL_tii2014.switch0.eth[2].lpi_client 	linkPLPI_time:timeavg 	0.21195468373088
attr source  partial_lpi_time
scalar EPL_tii2014.switch0.eth[2].lpi_client 	linkLPI_time:min 	6.840001e-06
attr source  lpi_time
scalar EPL_tii2014.switch0.eth[2].lpi_client 	linkLPI_time:max 	0.001342830016
attr source  lpi_time
scalar EPL_tii2014.switch0.eth[2].lpi_client 	linkLPI_time:timeavg 	6.8576899484402e-05
attr source  lpi_time
scalar EPL_tii2014.switch1.relayUnit 	"processed frames" 	2256
scalar EPL_tii2014.switch1.relayUnit 	"dropped frames" 	0
scalar EPL_tii2014.switch1.relayUnit 	droppedBytes:count 	0
attr title  "Dropped bytes, count"
scalar EPL_tii2014.switch1.relayUnit 	droppedBytes:sum 	0
attr title  "Dropped bytes, sum"
scalar EPL_tii2014.switch1.relayUnit 	processedBytes:count 	0
attr title  "Processed bytes, count"
scalar EPL_tii2014.switch1.relayUnit 	processedBytes:sum 	0
attr title  "Processed bytes, sum"
scalar EPL_tii2014.switch1.relayUnit 	usedBufferBytes:max 	nan
attr title  "Used buffer bytes, max"
scalar EPL_tii2014.switch1.relayUnit 	usedBufferBytes:timeavg 	nan
attr title  "Used buffer bytes, timeavg"
scalar EPL_tii2014.switch1.eth[0].mac 	"simulated time" 	0.500002509997
scalar EPL_tii2014.switch1.eth[0].mac 	full-duplex 	1
scalar EPL_tii2014.switch1.eth[0].mac 	"frames/sec sent" 	1679.9915664524
scalar EPL_tii2014.switch1.eth[0].mac 	"frames/sec rcvd" 	2831.9857834484
scalar EPL_tii2014.switch1.eth[0].mac 	"bits/sec sent" 	860155.68202364
scalar EPL_tii2014.switch1.eth[0].mac 	"bits/sec rcvd" 	1449976.7211256
scalar EPL_tii2014.switch1.eth[0].mac 	"rx channel idle (%)" 	98.368776188734
scalar EPL_tii2014.switch1.eth[0].mac 	"rx channel utilization (%)" 	1.6312238112663
scalar EPL_tii2014.switch1.eth[0].mac 	droppedPkNotForUs:count 	0
attr interpolationmode  none
attr source  dropPkNotForUs
attr title  "packets dropped/not for us, count"
scalar EPL_tii2014.switch1.eth[0].mac 	droppedPkNotForUs:sum(packetBytes) 	0
attr interpolationmode  none
attr source  dropPkNotForUs
attr title  "packets dropped/not for us, sum(packetBytes)"
scalar EPL_tii2014.switch1.eth[0].mac 	droppedPkBitError:count 	0
attr interpolationmode  none
attr source  dropPkBitError
attr title  "packets dropped/bit error, count"
scalar EPL_tii2014.switch1.eth[0].mac 	droppedPkBitError:sum(packetBytes) 	0
attr interpolationmode  none
attr source  dropPkBitError
attr title  "packets dropped/bit error, sum(packetBytes)"
scalar EPL_tii2014.switch1.eth[0].mac 	droppedPkIfaceDown:count 	0
attr interpolationmode  none
attr source  dropPkIfaceDown
attr title  "packets dropped/interface down, count"
scalar EPL_tii2014.switch1.eth[0].mac 	droppedPkIfaceDown:sum(packetBytes) 	0
attr interpolationmode  none
attr source  dropPkIfaceDown
attr title  "packets dropped/interface down, sum(packetBytes)"
scalar EPL_tii2014.switch1.eth[0].mac 	rxPkFromHL:count 	840
attr interpolationmode  none
attr source  rxPkFromHL
attr title  "packet bytes from higher layer, count"
scalar EPL_tii2014.switch1.eth[0].mac 	rxPkFromHL:sum(packetBytes) 	53760
attr interpolationmode  none
attr source  rxPkFromHL
attr title  "packet bytes from higher layer, sum(packetBytes)"
scalar EPL_tii2014.switch1.eth[0].mac 	rxPausePkUnits:count 	0
attr interpolationmode  none
attr title  "pause units received, count"
scalar EPL_tii2014.switch1.eth[0].mac 	rxPausePkUnits:sum 	0
attr interpolationmode  none
attr title  "pause units received, sum"
scalar EPL_tii2014.switch1.eth[0].mac 	txPausePkUnits:count 	0
attr interpolationmode  none
attr title  "pause units sent, count"
scalar EPL_tii2014.switch1.eth[0].mac 	txPausePkUnits:sum 	0
attr interpolationmode  none
attr title  "pause units sent, sum"
scalar EPL_tii2014.switch1.eth[0].mac 	passedUpPk:count 	1416
attr interpolationmode  none
attr source  packetSentToUpper
attr title  "packets passed to higher layer, count"
scalar EPL_tii2014.switch1.eth[0].mac 	passedUpPk:sum(packetBytes) 	90624
attr interpolationmode  none
attr source  packetSentToUpper
attr title  "packets passed to higher layer, sum(packetBytes)"
scalar EPL_tii2014.switch1.eth[0].mac 	rxPkOk:count 	1416
attr interpolationmode  none
attr source  rxPkOk
attr title  "packets received OK, count"
scalar EPL_tii2014.switch1.eth[0].mac 	rxPkOk:sum(packetBytes) 	90624
attr interpolationmode  none
attr source  rxPkOk
attr title  "packets received OK, sum(packetBytes)"
scalar EPL_tii2014.switch1.eth[0].mac 	txPk:count 	840
attr interpolationmode  none
attr source  txPk
attr title  "packets transmitted, count"
scalar EPL_tii2014.switch1.eth[0].mac 	txPk:sum(packetBytes) 	53760
attr interpolationmode  none
attr source  txPk
attr title  "packets transmitted, sum(packetBytes)"
scalar EPL_tii2014.switch1.eth[0].lpi_client 	linkPLPI_time:min 	0.000258
attr source  partial_lpi_time
scalar EPL_tii2014.switch1.eth[0].lpi_client 	linkPLPI_time:max 	0.25672679916
attr source  partial_lpi_time
scalar EPL_tii2014.switch1.eth[0].lpi_client 	linkPLPI_time:timeavg 	0.12821212319039
attr source  partial_lpi_time
scalar EPL_tii2014.switch1.eth[0].lpi_client 	linkLPI_time:min 	6.840001e-06
attr source  lpi_time
scalar EPL_tii2014.switch1.eth[0].lpi_client 	linkLPI_time:max 	0.005763640001
attr source  lpi_time
scalar EPL_tii2014.switch1.eth[0].lpi_client 	linkLPI_time:timeavg 	0.00015532633401003
attr source  lpi_time
scalar EPL_tii2014.switch1.eth[1].mac 	"simulated time" 	0.500002509997
scalar EPL_tii2014.switch1.eth[1].mac 	full-duplex 	1
scalar EPL_tii2014.switch1.eth[1].mac 	"frames/sec sent" 	2831.9857834484
scalar EPL_tii2014.switch1.eth[1].mac 	"frames/sec rcvd" 	83.999578322621
scalar EPL_tii2014.switch1.eth[1].mac 	"bits/sec sent" 	1449976.7211256
scalar EPL_tii2014.switch1.eth[1].mac 	"bits/sec rcvd" 	43007.784101182
scalar EPL_tii2014.switch1.eth[1].mac 	"rx channel idle (%)" 	99.951616242886
scalar EPL_tii2014.switch1.eth[1].mac 	"rx channel utilization (%)" 	0.04838375711383
scalar EPL_tii2014.switch1.eth[1].mac 	droppedPkNotForUs:count 	0
attr interpolationmode  none
attr source  dropPkNotForUs
attr title  "packets dropped/not for us, count"
scalar EPL_tii2014.switch1.eth[1].mac 	droppedPkNotForUs:sum(packetBytes) 	0
attr interpolationmode  none
attr source  dropPkNotForUs
attr title  "packets dropped/not for us, sum(packetBytes)"
scalar EPL_tii2014.switch1.eth[1].mac 	droppedPkBitError:count 	0
attr interpolationmode  none
attr source  dropPkBitError
attr title  "packets dropped/bit error, count"
scalar EPL_tii2014.switch1.eth[1].mac 	droppedPkBitError:sum(packetBytes) 	0
attr interpolationmode  none
attr source  dropPkBitError
attr title  "packets dropped/bit error, sum(packetBytes)"
scalar EPL_tii2014.switch1.eth[1].mac 	droppedPkIfaceDown:count 	0
attr interpolationmode  none
attr source  dropPkIfaceDown
attr title  "packets dropped/interface down, count"
scalar EPL_tii2014.switch1.eth[1].mac 	droppedPkIfaceDown:sum(packetBytes) 	0
attr interpolationmode  none
attr source  dropPkIfaceDown
attr title  "packets dropped/interface down, sum(packetBytes)"
scalar EPL_tii2014.switch1.eth[1].mac 	rxPkFromHL:count 	1416
attr interpolationmode  none
attr source  rxPkFromHL
attr title  "packet bytes from higher layer, count"
scalar EPL_tii2014.switch1.eth[1].mac 	rxPkFromHL:sum(packetBytes) 	90624
attr interpolationmode  none
attr source  rxPkFromHL
attr title  "packet bytes from higher layer, sum(packetBytes)"
scalar EPL_tii2014.switch1.eth[1].mac 	rxPausePkUnits:count 	0
attr interpolationmode  none
attr title  "pause units received, count"
scalar EPL_tii2014.switch1.eth[1].mac 	rxPausePkUnits:sum 	0
attr interpolationmode  none
attr title  "pause units received, sum"
scalar EPL_tii2014.switch1.eth[1].mac 	txPausePkUnits:count 	0
attr interpolationmode  none
attr title  "pause units sent, count"
scalar EPL_tii2014.switch1.eth[1].mac 	txPausePkUnits:sum 	0
attr interpolationmode  none
attr title  "pause units sent, sum"
scalar EPL_tii2014.switch1.eth[1].mac 	passedUpPk:count 	42
attr interpolationmode  none
attr source  packetSentToUpper
attr title  "packets passed to higher layer, count"
scalar EPL_tii2014.switch1.eth[1].mac 	passedUpPk:sum(packetBytes) 	2688
attr interpolationmode  none
attr source  packetSentToUpper
attr title  "packets passed to higher layer, sum(packetBytes)"
scalar EPL_tii2014.switch1.eth[1].mac 	rxPkOk:count 	42
attr interpolationmode  none
attr source  rxPkOk
attr title  "packets received OK, count"
scalar EPL_tii2014.switch1.eth[1].mac 	rxPkOk:sum(packetBytes) 	2688
attr interpolationmode  none
attr source  rxPkOk
attr title  "packets received OK, sum(packetBytes)"
scalar EPL_tii2014.switch1.eth[1].mac 	txPk:count 	1416
attr interpolationmode  none
attr source  txPk
attr title  "packets transmitted, count"
scalar EPL_tii2014.switch1.eth[1].mac 	txPk:sum(packetBytes) 	90624
attr interpolationmode  none
attr source  txPk
attr title  "packets transmitted, sum(packetBytes)"
scalar EPL_tii2014.switch1.eth[1].lpi_client 	linkPLPI_time:min 	0.000258
attr source  partial_lpi_time
scalar EPL_tii2014.switch1.eth[1].lpi_client 	linkPLPI_time:max 	0.419267878542
attr source  partial_lpi_time
scalar EPL_tii2014.switch1.eth[1].lpi_client 	linkPLPI_time:timeavg 	0.20961273916602
attr source  partial_lpi_time
scalar EPL_tii2014.switch1.eth[1].lpi_client 	linkLPI_time:min 	6.840001e-06
attr source  lpi_time
scalar EPL_tii2014.switch1.eth[1].lpi_client 	linkLPI_time:max 	0.001342830016
attr source  lpi_time
scalar EPL_tii2014.switch1.eth[1].lpi_client 	linkLPI_time:timeavg 	9.4937428124275e-05
attr source  lpi_time
scalar EPL_tii2014.switch1.eth[2].mac 	"simulated time" 	0.500002509997
scalar EPL_tii2014.switch1.eth[2].mac 	full-duplex 	1
scalar EPL_tii2014.switch1.eth[2].mac 	"frames/sec sent" 	2831.9857834484
scalar EPL_tii2014.switch1.eth[2].mac 	"frames/sec rcvd" 	83.999578322621
scalar EPL_tii2014.switch1.eth[2].mac 	"bits/sec sent" 	1449976.7211256
scalar EPL_tii2014.switch1.eth[2].mac 	"bits/sec rcvd" 	43007.784101182
scalar EPL_tii2014.switch1.eth[2].mac 	"rx channel idle (%)" 	99.951616242886
scalar EPL_tii2014.switch1.eth[2].mac 	"rx channel utilization (%)" 	0.04838375711383
scalar EPL_tii2014.switch1.eth[2].mac 	droppedPkNotForUs:count 	0
attr interpolationmode  none
attr source  dropPkNotForUs
attr title  "packets dropped/not for us, count"
scalar EPL_tii2014.switch1.eth[2].mac 	droppedPkNotForUs:sum(packetBytes) 	0
attr interpolationmode  none
attr source  dropPkNotForUs
attr title  "packets dropped/not for us, sum(packetBytes)"
scalar EPL_tii2014.switch1.eth[2].mac 	droppedPkBitError:count 	0
attr interpolationmode  none
attr source  dropPkBitError
attr title  "packets dropped/bit error, count"
scalar EPL_tii2014.switch1.eth[2].mac 	droppedPkBitError:sum(packetBytes) 	0
attr interpolationmode  none
attr source  dropPkBitError
attr title  "packets dropped/bit error, sum(packetBytes)"
scalar EPL_tii2014.switch1.eth[2].mac 	droppedPkIfaceDown:count 	0
attr interpolationmode  none
attr source  dropPkIfaceDown
attr title  "packets dropped/interface down, count"
scalar EPL_tii2014.switch1.eth[2].mac 	droppedPkIfaceDown:sum(packetBytes) 	0
attr interpolationmode  none
attr source  dropPkIfaceDown
attr title  "packets dropped/interface down, sum(packetBytes)"
scalar EPL_tii2014.switch1.eth[2].mac 	rxPkFromHL:count 	1416
attr interpolationmode  none
attr source  rxPkFromHL
attr title  "packet bytes from higher layer, count"
scalar EPL_tii2014.switch1.eth[2].mac 	rxPkFromHL:sum(packetBytes) 	90624
attr interpolationmode  none
attr source  rxPkFromHL
attr title  "packet bytes from higher layer, sum(packetBytes)"
scalar EPL_tii2014.switch1.eth[2].mac 	rxPausePkUnits:count 	0
attr interpolationmode  none
attr title  "pause units received, count"
scalar EPL_tii2014.switch1.eth[2].mac 	rxPausePkUnits:sum 	0
attr interpolationmode  none
attr title  "pause units received, sum"
scalar EPL_tii2014.switch1.eth[2].mac 	txPausePkUnits:count 	0
attr interpolationmode  none
attr title  "pause units sent, count"
scalar EPL_tii2014.switch1.eth[2].mac 	txPausePkUnits:sum 	0
attr interpolationmode  none
attr title  "pause units sent, sum"
scalar EPL_tii2014.switch1.eth[2].mac 	passedUpPk:count 	42
attr interpolationmode  none
attr source  packetSentToUpper
attr title  "packets passed to higher layer, count"
scalar EPL_tii2014.switch1.eth[2].mac 	passedUpPk:sum(packetBytes) 	2688
attr interpolationmode  none
attr source  packetSentToUpper
attr title  "packets passed to higher layer, sum(packetBytes)"
scalar EPL_tii2014.switch1.eth[2].mac 	rxPkOk:count 	42
attr interpolationmode  none
attr source  rxPkOk
attr title  "packets received OK, count"
scalar EPL_tii2014.switch1.eth[2].mac 	rxPkOk:sum(packetBytes) 	2688
attr interpolationmode  none
attr source  rxPkOk
attr title  "packets received OK, sum(packetBytes)"
scalar EPL_tii2014.switch1.eth[2].mac 	txPk:count 	1416
attr interpolationmode  none
attr source  txPk
attr title  "packets transmitted, count"
scalar EPL_tii2014.switch1.eth[2].mac 	txPk:sum(packetBytes) 	90624
attr interpolationmode  none
attr source  txPk
attr title  "packets transmitted, sum(packetBytes)"
scalar EPL_tii2014.switch1.eth[2].lpi_client 	linkPLPI_time:min 	0.000258
attr source  partial_lpi_time
scalar EPL_tii2014.switch1.eth[2].lpi_client 	linkPLPI_time:max 	0.419555158584
attr source  partial_lpi_time
scalar EPL_tii2014.switch1.eth[2].lpi_client 	linkPLPI_time:timeavg 	0.2097472878473
attr source  partial_lpi_time
scalar EPL_tii2014.switch1.eth[2].lpi_client 	linkLPI_time:min 	6.840001e-06
attr source  lpi_time
scalar EPL_tii2014.switch1.eth[2].lpi_client 	linkLPI_time:max 	0.001342830016
attr source  lpi_time
scalar EPL_tii2014.switch1.eth[2].lpi_client 	linkLPI_time:timeavg 	0.00012973529393383
attr source  lpi_time
scalar EPL_tii2014.switch1.eth[3].mac 	"simulated time" 	0.500002509997
scalar EPL_tii2014.switch1.eth[3].mac 	full-duplex 	1
scalar EPL_tii2014.switch1.eth[3].mac 	"frames/sec sent" 	2831.9857834484
scalar EPL_tii2014.switch1.eth[3].mac 	"frames/sec rcvd" 	83.999578322621
scalar EPL_tii2014.switch1.eth[3].mac 	"bits/sec sent" 	1449976.7211256
scalar EPL_tii2014.switch1.eth[3].mac 	"bits/sec rcvd" 	43007.784101182
scalar EPL_tii2014.switch1.eth[3].mac 	"rx channel idle (%)" 	99.951616242886
scalar EPL_tii2014.switch1.eth[3].mac 	"rx channel utilization (%)" 	0.04838375711383
scalar EPL_tii2014.switch1.eth[3].mac 	droppedPkNotForUs:count 	0
attr interpolationmode  none
attr source  dropPkNotForUs
attr title  "packets dropped/not for us, count"
scalar EPL_tii2014.switch1.eth[3].mac 	droppedPkNotForUs:sum(packetBytes) 	0
attr interpolationmode  none
attr source  dropPkNotForUs
attr title  "packets dropped/not for us, sum(packetBytes)"
scalar EPL_tii2014.switch1.eth[3].mac 	droppedPkBitError:count 	0
attr interpolationmode  none
attr source  dropPkBitError
attr title  "packets dropped/bit error, count"
scalar EPL_tii2014.switch1.eth[3].mac 	droppedPkBitError:sum(packetBytes) 	0
attr interpolationmode  none
attr source  dropPkBitError
attr title  "packets dropped/bit error, sum(packetBytes)"
scalar EPL_tii2014.switch1.eth[3].mac 	droppedPkIfaceDown:count 	0
attr interpolationmode  none
attr source  dropPkIfaceDown
attr title  "packets dropped/interface down, count"
scalar EPL_tii2014.switch1.eth[3].mac 	droppedPkIfaceDown:sum(packetBytes) 	0
attr interpolationmode  none
attr source  dropPkIfaceDown
attr title  "packets dropped/interface down, sum(packetBytes)"
scalar EPL_tii2014.switch1.eth[3].mac 	rxPkFromHL:count 	1416
attr interpolationmode  none
attr source  rxPkFromHL
attr title  "packet bytes from higher layer, count"
scalar EPL_tii2014.switch1.eth[3].mac 	rxPkFromHL:sum(packetBytes) 	90624
attr interpolationmode  none
attr source  rxPkFromHL
attr title  "packet bytes from higher layer, sum(packetBytes)"
scalar EPL_tii2014.switch1.eth[3].mac 	rxPausePkUnits:count 	0
attr interpolationmode  none
attr title  "pause units received, count"
scalar EPL_tii2014.switch1.eth[3].mac 	rxPausePkUnits:sum 	0
attr interpolationmode  none
attr title  "pause units received, sum"
scalar EPL_tii2014.switch1.eth[3].mac 	txPausePkUnits:count 	0
attr interpolationmode  none
attr title  "pause units sent, count"
scalar EPL_tii2014.switch1.eth[3].mac 	txPausePkUnits:sum 	0
attr interpolationmode  none
attr title  "pause units sent, sum"
scalar EPL_tii2014.switch1.eth[3].mac 	passedUpPk:count 	42
attr interpolationmode  none
attr source  packetSentToUpper
attr title  "packets passed to higher layer, count"
scalar EPL_tii2014.switch1.eth[3].mac 	passedUpPk:sum(packetBytes) 	2688
attr interpolationmode  none
attr source  packetSentToUpper
attr title  "packets passed to higher layer, sum(packetBytes)"
scalar EPL_tii2014.switch1.eth[3].mac 	rxPkOk:count 	42
attr interpolationmode  none
attr source  rxPkOk
attr title  "packets received OK, count"
scalar EPL_tii2014.switch1.eth[3].mac 	rxPkOk:sum(packetBytes) 	2688
attr interpolationmode  none
attr source  rxPkOk
attr title  "packets received OK, sum(packetBytes)"
scalar EPL_tii2014.switch1.eth[3].mac 	txPk:count 	1416
attr interpolationmode  none
attr source  txPk
attr title  "packets transmitted, count"
scalar EPL_tii2014.switch1.eth[3].mac 	txPk:sum(packetBytes) 	90624
attr interpolationmode  none
attr source  txPk
attr title  "packets transmitted, sum(packetBytes)"
scalar EPL_tii2014.switch1.eth[3].lpi_client 	linkPLPI_time:min 	0.000258
attr source  partial_lpi_time
scalar EPL_tii2014.switch1.eth[3].lpi_client 	linkPLPI_time:max 	0.419555158584
attr source  partial_lpi_time
scalar EPL_tii2014.switch1.eth[3].lpi_client 	linkPLPI_time:timeavg 	0.20975511994879
attr source  partial_lpi_time
scalar EPL_tii2014.switch1.eth[3].lpi_client 	linkLPI_time:min 	6.840001e-06
attr source  lpi_time
scalar EPL_tii2014.switch1.eth[3].lpi_client 	linkLPI_time:max 	0.001342830016
attr source  lpi_time
scalar EPL_tii2014.switch1.eth[3].lpi_client 	linkLPI_time:timeavg 	9.4937428124275e-05
attr source  lpi_time
scalar EPL_tii2014.switch1.eth[4].mac 	"simulated time" 	0.500002509997
scalar EPL_tii2014.switch1.eth[4].mac 	full-duplex 	1
scalar EPL_tii2014.switch1.eth[4].mac 	"frames/sec sent" 	2831.9857834484
scalar EPL_tii2014.switch1.eth[4].mac 	"frames/sec rcvd" 	83.999578322621
scalar EPL_tii2014.switch1.eth[4].mac 	"bits/sec sent" 	1449976.7211256
scalar EPL_tii2014.switch1.eth[4].mac 	"bits/sec rcvd" 	43007.784101182
scalar EPL_tii2014.switch1.eth[4].mac 	"rx channel idle (%)" 	99.951616242886
scalar EPL_tii2014.switch1.eth[4].mac 	"rx channel utilization (%)" 	0.04838375711383
scalar EPL_tii2014.switch1.eth[4].mac 	droppedPkNotForUs:count 	0
attr interpolationmode  none
attr source  dropPkNotForUs
attr title  "packets dropped/not for us, count"
scalar EPL_tii2014.switch1.eth[4].mac 	droppedPkNotForUs:sum(packetBytes) 	0
attr interpolationmode  none
attr source  dropPkNotForUs
attr title  "packets dropped/not for us, sum(packetBytes)"
scalar EPL_tii2014.switch1.eth[4].mac 	droppedPkBitError:count 	0
attr interpolationmode  none
attr source  dropPkBitError
attr title  "packets dropped/bit error, count"
scalar EPL_tii2014.switch1.eth[4].mac 	droppedPkBitError:sum(packetBytes) 	0
attr interpolationmode  none
attr source  dropPkBitError
attr title  "packets dropped/bit error, sum(packetBytes)"
scalar EPL_tii2014.switch1.eth[4].mac 	droppedPkIfaceDown:count 	0
attr interpolationmode  none
attr source  dropPkIfaceDown
attr title  "packets dropped/interface down, count"
scalar EPL_tii2014.switch1.eth[4].mac 	droppedPkIfaceDown:sum(packetBytes) 	0
attr interpolationmode  none
attr source  dropPkIfaceDown
attr title  "packets dropped/interface down, sum(packetBytes)"
scalar EPL_tii2014.switch1.eth[4].mac 	rxPkFromHL:count 	1416
attr interpolationmode  none
attr source  rxPkFromHL
attr title  "packet bytes from higher layer, count"
scalar EPL_tii2014.switch1.eth[4].mac 	rxPkFromHL:sum(packetBytes) 	90624
attr interpolationmode  none
attr source  rxPkFromHL
attr title  "packet bytes from higher layer, sum(packetBytes)"
scalar EPL_tii2014.switch1.eth[4].mac 	rxPausePkUnits:count 	0
attr interpolationmode  none
attr title  "pause units received, count"
scalar EPL_tii2014.switch1.eth[4].mac 	rxPausePkUnits:sum 	0
attr interpolationmode  none
attr title  "pause units received, sum"
scalar EPL_tii2014.switch1.eth[4].mac 	txPausePkUnits:count 	0
attr interpolationmode  none
attr title  "pause units sent, count"
scalar EPL_tii2014.switch1.eth[4].mac 	txPausePkUnits:sum 	0
attr interpolationmode  none
attr title  "pause units sent, sum"
scalar EPL_tii2014.switch1.eth[4].mac 	passedUpPk:count 	42
attr interpolationmode  none
attr source  packetSentToUpper
attr title  "packets passed to higher layer, count"
scalar EPL_tii2014.switch1.eth[4].mac 	passedUpPk:sum(packetBytes) 	2688
attr interpolationmode  none
attr source  packetSentToUpper
attr title  "packets passed to higher layer, sum(packetBytes)"
scalar EPL_tii2014.switch1.eth[4].mac 	rxPkOk:count 	42
attr interpolationmode  none
attr source  rxPkOk
attr title  "packets received OK, count"
scalar EPL_tii2014.switch1.eth[4].mac 	rxPkOk:sum(packetBytes) 	2688
attr interpolationmode  none
attr source  rxPkOk
attr title  "packets received OK, sum(packetBytes)"
scalar EPL_tii2014.switch1.eth[4].mac 	txPk:count 	1416
attr interpolationmode  none
attr source  txPk
attr title  "packets transmitted, count"
scalar EPL_tii2014.switch1.eth[4].mac 	txPk:sum(packetBytes) 	90624
attr interpolationmode  none
attr source  txPk
attr title  "packets transmitted, sum(packetBytes)"
scalar EPL_tii2014.switch1.eth[4].lpi_client 	linkPLPI_time:min 	0.000258
attr source  partial_lpi_time
scalar EPL_tii2014.switch1.eth[4].lpi_client 	linkPLPI_time:max 	0.419555158584
attr source  partial_lpi_time
scalar EPL_tii2014.switch1.eth[4].lpi_client 	linkPLPI_time:timeavg 	0.20975775340256
attr source  partial_lpi_time
scalar EPL_tii2014.switch1.eth[4].lpi_client 	linkLPI_time:min 	6.840001e-06
attr source  lpi_time
scalar EPL_tii2014.switch1.eth[4].lpi_client 	linkLPI_time:max 	0.001342830016
attr source  lpi_time
scalar EPL_tii2014.switch1.eth[4].lpi_client 	linkLPI_time:timeavg 	9.4937428124275e-05
attr source  lpi_time
scalar EPL_tii2014.switch1.eth[5].mac 	"simulated time" 	0.500002509997
scalar EPL_tii2014.switch1.eth[5].mac 	full-duplex 	1
scalar EPL_tii2014.switch1.eth[5].mac 	"frames/sec sent" 	2831.9857834484
scalar EPL_tii2014.switch1.eth[5].mac 	"frames/sec rcvd" 	83.999578322621
scalar EPL_tii2014.switch1.eth[5].mac 	"bits/sec sent" 	1449976.7211256
scalar EPL_tii2014.switch1.eth[5].mac 	"bits/sec rcvd" 	43007.784101182
scalar EPL_tii2014.switch1.eth[5].mac 	"rx channel idle (%)" 	99.951616242886
scalar EPL_tii2014.switch1.eth[5].mac 	"rx channel utilization (%)" 	0.04838375711383
scalar EPL_tii2014.switch1.eth[5].mac 	droppedPkNotForUs:count 	0
attr interpolationmode  none
attr source  dropPkNotForUs
attr title  "packets dropped/not for us, count"
scalar EPL_tii2014.switch1.eth[5].mac 	droppedPkNotForUs:sum(packetBytes) 	0
attr interpolationmode  none
attr source  dropPkNotForUs
attr title  "packets dropped/not for us, sum(packetBytes)"
scalar EPL_tii2014.switch1.eth[5].mac 	droppedPkBitError:count 	0
attr interpolationmode  none
attr source  dropPkBitError
attr title  "packets dropped/bit error, count"
scalar EPL_tii2014.switch1.eth[5].mac 	droppedPkBitError:sum(packetBytes) 	0
attr interpolationmode  none
attr source  dropPkBitError
attr title  "packets dropped/bit error, sum(packetBytes)"
scalar EPL_tii2014.switch1.eth[5].mac 	droppedPkIfaceDown:count 	0
attr interpolationmode  none
attr source  dropPkIfaceDown
attr title  "packets dropped/interface down, count"
scalar EPL_tii2014.switch1.eth[5].mac 	droppedPkIfaceDown:sum(packetBytes) 	0
attr interpolationmode  none
attr source  dropPkIfaceDown
attr title  "packets dropped/interface down, sum(packetBytes)"
scalar EPL_tii2014.switch1.eth[5].mac 	rxPkFromHL:count 	1416
attr interpolationmode  none
attr source  rxPkFromHL
attr title  "packet bytes from higher layer, count"
scalar EPL_tii2014.switch1.eth[5].mac 	rxPkFromHL:sum(packetBytes) 	90624
attr interpolationmode  none
attr source  rxPkFromHL
attr title  "packet bytes from higher layer, sum(packetBytes)"
scalar EPL_tii2014.switch1.eth[5].mac 	rxPausePkUnits:count 	0
attr interpolationmode  none
attr title  "pause units received, count"
scalar EPL_tii2014.switch1.eth[5].mac 	rxPausePkUnits:sum 	0
attr interpolationmode  none
attr title  "pause units received, sum"
scalar EPL_tii2014.switch1.eth[5].mac 	txPausePkUnits:count 	0
attr interpolationmode  none
attr title  "pause units sent, count"
scalar EPL_tii2014.switch1.eth[5].mac 	txPausePkUnits:sum 	0
attr interpolationmode  none
attr title  "pause units sent, sum"
scalar EPL_tii2014.switch1.eth[5].mac 	passedUpPk:count 	42
attr interpolationmode  none
attr source  packetSentToUpper
attr title  "packets passed to higher layer, count"
scalar EPL_tii2014.switch1.eth[5].mac 	passedUpPk:sum(packetBytes) 	2688
attr interpolationmode  none
attr source  packetSentToUpper
attr title  "packets passed to higher layer, sum(packetBytes)"
scalar EPL_tii2014.switch1.eth[5].mac 	rxPkOk:count 	42
attr interpolationmode  none
attr source  rxPkOk
attr title  "packets received OK, count"
scalar EPL_tii2014.switch1.eth[5].mac 	rxPkOk:sum(packetBytes) 	2688
attr interpolationmode  none
attr source  rxPkOk
attr title  "packets received OK, sum(packetBytes)"
scalar EPL_tii2014.switch1.eth[5].mac 	txPk:count 	1416
attr interpolationmode  none
attr source  txPk
attr title  "packets transmitted, count"
scalar EPL_tii2014.switch1.eth[5].mac 	txPk:sum(packetBytes) 	90624
attr interpolationmode  none
attr source  txPk
attr title  "packets transmitted, sum(packetBytes)"
scalar EPL_tii2014.switch1.eth[5].lpi_client 	linkPLPI_time:min 	0.000258
attr source  partial_lpi_time
scalar EPL_tii2014.switch1.eth[5].lpi_client 	linkPLPI_time:max 	0.419555158584
attr source  partial_lpi_time
scalar EPL_tii2014.switch1.eth[5].lpi_client 	linkPLPI_time:timeavg 	0.20976038685632
attr source  partial_lpi_time
scalar EPL_tii2014.switch1.eth[5].lpi_client 	linkLPI_time:min 	6.840001e-06
attr source  lpi_time
scalar EPL_tii2014.switch1.eth[5].lpi_client 	linkLPI_time:max 	0.001342830016
attr source  lpi_time
scalar EPL_tii2014.switch1.eth[5].lpi_client 	linkLPI_time:timeavg 	9.4937428124275e-05
attr source  lpi_time
scalar EPL_tii2014.switch1.eth[6].mac 	"simulated time" 	0.500002509997
scalar EPL_tii2014.switch1.eth[6].mac 	full-duplex 	1
scalar EPL_tii2014.switch1.eth[6].mac 	"frames/sec sent" 	2831.9857834484
scalar EPL_tii2014.switch1.eth[6].mac 	"frames/sec rcvd" 	83.999578322621
scalar EPL_tii2014.switch1.eth[6].mac 	"bits/sec sent" 	1449976.7211256
scalar EPL_tii2014.switch1.eth[6].mac 	"bits/sec rcvd" 	43007.784101182
scalar EPL_tii2014.switch1.eth[6].mac 	"rx channel idle (%)" 	99.951616242886
scalar EPL_tii2014.switch1.eth[6].mac 	"rx channel utilization (%)" 	0.04838375711383
scalar EPL_tii2014.switch1.eth[6].mac 	droppedPkNotForUs:count 	0
attr interpolationmode  none
attr source  dropPkNotForUs
attr title  "packets dropped/not for us, count"
scalar EPL_tii2014.switch1.eth[6].mac 	droppedPkNotForUs:sum(packetBytes) 	0
attr interpolationmode  none
attr source  dropPkNotForUs
attr title  "packets dropped/not for us, sum(packetBytes)"
scalar EPL_tii2014.switch1.eth[6].mac 	droppedPkBitError:count 	0
attr interpolationmode  none
attr source  dropPkBitError
attr title  "packets dropped/bit error, count"
scalar EPL_tii2014.switch1.eth[6].mac 	droppedPkBitError:sum(packetBytes) 	0
attr interpolationmode  none
attr source  dropPkBitError
attr title  "packets dropped/bit error, sum(packetBytes)"
scalar EPL_tii2014.switch1.eth[6].mac 	droppedPkIfaceDown:count 	0
attr interpolationmode  none
attr source  dropPkIfaceDown
attr title  "packets dropped/interface down, count"
scalar EPL_tii2014.switch1.eth[6].mac 	droppedPkIfaceDown:sum(packetBytes) 	0
attr interpolationmode  none
attr source  dropPkIfaceDown
attr title  "packets dropped/interface down, sum(packetBytes)"
scalar EPL_tii2014.switch1.eth[6].mac 	rxPkFromHL:count 	1416
attr interpolationmode  none
attr source  rxPkFromHL
attr title  "packet bytes from higher layer, count"
scalar EPL_tii2014.switch1.eth[6].mac 	rxPkFromHL:sum(packetBytes) 	90624
attr interpolationmode  none
attr source  rxPkFromHL
attr title  "packet bytes from higher layer, sum(packetBytes)"
scalar EPL_tii2014.switch1.eth[6].mac 	rxPausePkUnits:count 	0
attr interpolationmode  none
attr title  "pause units received, count"
scalar EPL_tii2014.switch1.eth[6].mac 	rxPausePkUnits:sum 	0
attr interpolationmode  none
attr title  "pause units received, sum"
scalar EPL_tii2014.switch1.eth[6].mac 	txPausePkUnits:count 	0
attr interpolationmode  none
attr title  "pause units sent, count"
scalar EPL_tii2014.switch1.eth[6].mac 	txPausePkUnits:sum 	0
attr interpolationmode  none
attr title  "pause units sent, sum"
scalar EPL_tii2014.switch1.eth[6].mac 	passedUpPk:count 	42
attr interpolationmode  none
attr source  packetSentToUpper
attr title  "packets passed to higher layer, count"
scalar EPL_tii2014.switch1.eth[6].mac 	passedUpPk:sum(packetBytes) 	2688
attr interpolationmode  none
attr source  packetSentToUpper
attr title  "packets passed to higher layer, sum(packetBytes)"
scalar EPL_tii2014.switch1.eth[6].mac 	rxPkOk:count 	42
attr interpolationmode  none
attr source  rxPkOk
attr title  "packets received OK, count"
scalar EPL_tii2014.switch1.eth[6].mac 	rxPkOk:sum(packetBytes) 	2688
attr interpolationmode  none
attr source  rxPkOk
attr title  "packets received OK, sum(packetBytes)"
scalar EPL_tii2014.switch1.eth[6].mac 	txPk:count 	1416
attr interpolationmode  none
attr source  txPk
attr title  "packets transmitted, count"
scalar EPL_tii2014.switch1.eth[6].mac 	txPk:sum(packetBytes) 	90624
attr interpolationmode  none
attr source  txPk
attr title  "packets transmitted, sum(packetBytes)"
scalar EPL_tii2014.switch1.eth[6].lpi_client 	linkPLPI_time:min 	0.000258
attr source  partial_lpi_time
scalar EPL_tii2014.switch1.eth[6].lpi_client 	linkPLPI_time:max 	0.419555158584
attr source  partial_lpi_time
scalar EPL_tii2014.switch1.eth[6].lpi_client 	linkPLPI_time:timeavg 	0.20976302031008
attr source  partial_lpi_time
scalar EPL_tii2014.switch1.eth[6].lpi_client 	linkLPI_time:min 	6.840001e-06
attr source  lpi_time
scalar EPL_tii2014.switch1.eth[6].lpi_client 	linkLPI_time:max 	0.001342830016
attr source  lpi_time
scalar EPL_tii2014.switch1.eth[6].lpi_client 	linkLPI_time:timeavg 	9.4937428124275e-05
attr source  lpi_time
scalar EPL_tii2014.switch1.eth[7].mac 	"simulated time" 	0.500002509997
scalar EPL_tii2014.switch1.eth[7].mac 	full-duplex 	1
scalar EPL_tii2014.switch1.eth[7].mac 	"frames/sec sent" 	2831.9857834484
scalar EPL_tii2014.switch1.eth[7].mac 	"frames/sec rcvd" 	83.999578322621
scalar EPL_tii2014.switch1.eth[7].mac 	"bits/sec sent" 	1449976.7211256
scalar EPL_tii2014.switch1.eth[7].mac 	"bits/sec rcvd" 	43007.784101182
scalar EPL_tii2014.switch1.eth[7].mac 	"rx channel idle (%)" 	99.951616242886
scalar EPL_tii2014.switch1.eth[7].mac 	"rx channel utilization (%)" 	0.04838375711383
scalar EPL_tii2014.switch1.eth[7].mac 	droppedPkNotForUs:count 	0
attr interpolationmode  none
attr source  dropPkNotForUs
attr title  "packets dropped/not for us, count"
scalar EPL_tii2014.switch1.eth[7].mac 	droppedPkNotForUs:sum(packetBytes) 	0
attr interpolationmode  none
attr source  dropPkNotForUs
attr title  "packets dropped/not for us, sum(packetBytes)"
scalar EPL_tii2014.switch1.eth[7].mac 	droppedPkBitError:count 	0
attr interpolationmode  none
attr source  dropPkBitError
attr title  "packets dropped/bit error, count"
scalar EPL_tii2014.switch1.eth[7].mac 	droppedPkBitError:sum(packetBytes) 	0
attr interpolationmode  none
attr source  dropPkBitError
attr title  "packets dropped/bit error, sum(packetBytes)"
scalar EPL_tii2014.switch1.eth[7].mac 	droppedPkIfaceDown:count 	0
attr interpolationmode  none
attr source  dropPkIfaceDown
attr title  "packets dropped/interface down, count"
scalar EPL_tii2014.switch1.eth[7].mac 	droppedPkIfaceDown:sum(packetBytes) 	0
attr interpolationmode  none
attr source  dropPkIfaceDown
attr title  "packets dropped/interface down, sum(packetBytes)"
scalar EPL_tii2014.switch1.eth[7].mac 	rxPkFromHL:count 	1416
attr interpolationmode  none
attr source  rxPkFromHL
attr title  "packet bytes from higher layer, count"
scalar EPL_tii2014.switch1.eth[7].mac 	rxPkFromHL:sum(packetBytes) 	90624
attr interpolationmode  none
attr source  rxPkFromHL
attr title  "packet bytes from higher layer, sum(packetBytes)"
scalar EPL_tii2014.switch1.eth[7].mac 	rxPausePkUnits:count 	0
attr interpolationmode  none
attr title  "pause units received, count"
scalar EPL_tii2014.switch1.eth[7].mac 	rxPausePkUnits:sum 	0
attr interpolationmode  none
attr title  "pause units received, sum"
scalar EPL_tii2014.switch1.eth[7].mac 	txPausePkUnits:count 	0
attr interpolationmode  none
attr title  "pause units sent, count"
scalar EPL_tii2014.switch1.eth[7].mac 	txPausePkUnits:sum 	0
attr interpolationmode  none
attr title  "pause units sent, sum"
scalar EPL_tii2014.switch1.eth[7].mac 	passedUpPk:count 	42
attr interpolationmode  none
attr source  packetSentToUpper
attr title  "packets passed to higher layer, count"
scalar EPL_tii2014.switch1.eth[7].mac 	passedUpPk:sum(packetBytes) 	2688
attr interpolationmode  none
attr source  packetSentToUpper
attr title  "packets passed to higher layer, sum(packetBytes)"
scalar EPL_tii2014.switch1.eth[7].mac 	rxPkOk:count 	42
attr interpolationmode  none
attr source  rxPkOk
attr title  "packets received OK, count"
scalar EPL_tii2014.switch1.eth[7].mac 	rxPkOk:sum(packetBytes) 	2688
attr interpolationmode  none
attr source  rxPkOk
attr title  "packets received OK, sum(packetBytes)"
scalar EPL_tii2014.switch1.eth[7].mac 	txPk:count 	1416
attr interpolationmode  none
attr source  txPk
attr title  "packets transmitted, count"
scalar EPL_tii2014.switch1.eth[7].mac 	txPk:sum(packetBytes) 	90624
attr interpolationmode  none
attr source  txPk
attr title  "packets transmitted, sum(packetBytes)"
scalar EPL_tii2014.switch1.eth[7].lpi_client 	linkPLPI_time:min 	0.000258
attr source  partial_lpi_time
scalar EPL_tii2014.switch1.eth[7].lpi_client 	linkPLPI_time:max 	0.419555158584
attr source  partial_lpi_time
scalar EPL_tii2014.switch1.eth[7].lpi_client 	linkPLPI_time:timeavg 	0.20976565376385
attr source  partial_lpi_time
scalar EPL_tii2014.switch1.eth[7].lpi_client 	linkLPI_time:min 	6.840001e-06
attr source  lpi_time
scalar EPL_tii2014.switch1.eth[7].lpi_client 	linkLPI_time:max 	0.001342830016
attr source  lpi_time
scalar EPL_tii2014.switch1.eth[7].lpi_client 	linkLPI_time:timeavg 	9.4937428124275e-05
attr source  lpi_time
scalar EPL_tii2014.switch1.eth[8].mac 	"simulated time" 	0.500002509997
scalar EPL_tii2014.switch1.eth[8].mac 	full-duplex 	1
scalar EPL_tii2014.switch1.eth[8].mac 	"frames/sec sent" 	2831.9857834484
scalar EPL_tii2014.switch1.eth[8].mac 	"frames/sec rcvd" 	83.999578322621
scalar EPL_tii2014.switch1.eth[8].mac 	"bits/sec sent" 	1449976.7211256
scalar EPL_tii2014.switch1.eth[8].mac 	"bits/sec rcvd" 	43007.784101182
scalar EPL_tii2014.switch1.eth[8].mac 	"rx channel idle (%)" 	99.951616242886
scalar EPL_tii2014.switch1.eth[8].mac 	"rx channel utilization (%)" 	0.04838375711383
scalar EPL_tii2014.switch1.eth[8].mac 	droppedPkNotForUs:count 	0
attr interpolationmode  none
attr source  dropPkNotForUs
attr title  "packets dropped/not for us, count"
scalar EPL_tii2014.switch1.eth[8].mac 	droppedPkNotForUs:sum(packetBytes) 	0
attr interpolationmode  none
attr source  dropPkNotForUs
attr title  "packets dropped/not for us, sum(packetBytes)"
scalar EPL_tii2014.switch1.eth[8].mac 	droppedPkBitError:count 	0
attr interpolationmode  none
attr source  dropPkBitError
attr title  "packets dropped/bit error, count"
scalar EPL_tii2014.switch1.eth[8].mac 	droppedPkBitError:sum(packetBytes) 	0
attr interpolationmode  none
attr source  dropPkBitError
attr title  "packets dropped/bit error, sum(packetBytes)"
scalar EPL_tii2014.switch1.eth[8].mac 	droppedPkIfaceDown:count 	0
attr interpolationmode  none
attr source  dropPkIfaceDown
attr title  "packets dropped/interface down, count"
scalar EPL_tii2014.switch1.eth[8].mac 	droppedPkIfaceDown:sum(packetBytes) 	0
attr interpolationmode  none
attr source  dropPkIfaceDown
attr title  "packets dropped/interface down, sum(packetBytes)"
scalar EPL_tii2014.switch1.eth[8].mac 	rxPkFromHL:count 	1416
attr interpolationmode  none
attr source  rxPkFromHL
attr title  "packet bytes from higher layer, count"
scalar EPL_tii2014.switch1.eth[8].mac 	rxPkFromHL:sum(packetBytes) 	90624
attr interpolationmode  none
attr source  rxPkFromHL
attr title  "packet bytes from higher layer, sum(packetBytes)"
scalar EPL_tii2014.switch1.eth[8].mac 	rxPausePkUnits:count 	0
attr interpolationmode  none
attr title  "pause units received, count"
scalar EPL_tii2014.switch1.eth[8].mac 	rxPausePkUnits:sum 	0
attr interpolationmode  none
attr title  "pause units received, sum"
scalar EPL_tii2014.switch1.eth[8].mac 	txPausePkUnits:count 	0
attr interpolationmode  none
attr title  "pause units sent, count"
scalar EPL_tii2014.switch1.eth[8].mac 	txPausePkUnits:sum 	0
attr interpolationmode  none
attr title  "pause units sent, sum"
scalar EPL_tii2014.switch1.eth[8].mac 	passedUpPk:count 	42
attr interpolationmode  none
attr source  packetSentToUpper
attr title  "packets passed to higher layer, count"
scalar EPL_tii2014.switch1.eth[8].mac 	passedUpPk:sum(packetBytes) 	2688
attr interpolationmode  none
attr source  packetSentToUpper
attr title  "packets passed to higher layer, sum(packetBytes)"
scalar EPL_tii2014.switch1.eth[8].mac 	rxPkOk:count 	42
attr interpolationmode  none
attr source  rxPkOk
attr title  "packets received OK, count"
scalar EPL_tii2014.switch1.eth[8].mac 	rxPkOk:sum(packetBytes) 	2688
attr interpolationmode  none
attr source  rxPkOk
attr title  "packets received OK, sum(packetBytes)"
scalar EPL_tii2014.switch1.eth[8].mac 	txPk:count 	1416
attr interpolationmode  none
attr source  txPk
attr title  "packets transmitted, count"
scalar EPL_tii2014.switch1.eth[8].mac 	txPk:sum(packetBytes) 	90624
attr interpolationmode  none
attr source  txPk
attr title  "packets transmitted, sum(packetBytes)"
scalar EPL_tii2014.switch1.eth[8].lpi_client 	linkPLPI_time:min 	0.000258
attr source  partial_lpi_time
scalar EPL_tii2014.switch1.eth[8].lpi_client 	linkPLPI_time:max 	0.419555158584
attr source  partial_lpi_time
scalar EPL_tii2014.switch1.eth[8].lpi_client 	linkPLPI_time:timeavg 	0.20976828721761
attr source  partial_lpi_time
scalar EPL_tii2014.switch1.eth[8].lpi_client 	linkLPI_time:min 	6.840001e-06
attr source  lpi_time
scalar EPL_tii2014.switch1.eth[8].lpi_client 	linkLPI_time:max 	0.001342830016
attr source  lpi_time
scalar EPL_tii2014.switch1.eth[8].lpi_client 	linkLPI_time:timeavg 	9.4937428124275e-05
attr source  lpi_time
scalar EPL_tii2014.switch1.eth[9].mac 	"simulated time" 	0.500002509997
scalar EPL_tii2014.switch1.eth[9].mac 	full-duplex 	1
scalar EPL_tii2014.switch1.eth[9].mac 	"frames/sec sent" 	2831.9857834484
scalar EPL_tii2014.switch1.eth[9].mac 	"frames/sec rcvd" 	83.999578322621
scalar EPL_tii2014.switch1.eth[9].mac 	"bits/sec sent" 	1449976.7211256
scalar EPL_tii2014.switch1.eth[9].mac 	"bits/sec rcvd" 	43007.784101182
scalar EPL_tii2014.switch1.eth[9].mac 	"rx channel idle (%)" 	99.951616242886
scalar EPL_tii2014.switch1.eth[9].mac 	"rx channel utilization (%)" 	0.04838375711383
scalar EPL_tii2014.switch1.eth[9].mac 	droppedPkNotForUs:count 	0
attr interpolationmode  none
attr source  dropPkNotForUs
attr title  "packets dropped/not for us, count"
scalar EPL_tii2014.switch1.eth[9].mac 	droppedPkNotForUs:sum(packetBytes) 	0
attr interpolationmode  none
attr source  dropPkNotForUs
attr title  "packets dropped/not for us, sum(packetBytes)"
scalar EPL_tii2014.switch1.eth[9].mac 	droppedPkBitError:count 	0
attr interpolationmode  none
attr source  dropPkBitError
attr title  "packets dropped/bit error, count"
scalar EPL_tii2014.switch1.eth[9].mac 	droppedPkBitError:sum(packetBytes) 	0
attr interpolationmode  none
attr source  dropPkBitError
attr title  "packets dropped/bit error, sum(packetBytes)"
scalar EPL_tii2014.switch1.eth[9].mac 	droppedPkIfaceDown:count 	0
attr interpolationmode  none
attr source  dropPkIfaceDown
attr title  "packets dropped/interface down, count"
scalar EPL_tii2014.switch1.eth[9].mac 	droppedPkIfaceDown:sum(packetBytes) 	0
attr interpolationmode  none
attr source  dropPkIfaceDown
attr title  "packets dropped/interface down, sum(packetBytes)"
scalar EPL_tii2014.switch1.eth[9].mac 	rxPkFromHL:count 	1416
attr interpolationmode  none
attr source  rxPkFromHL
attr title  "packet bytes from higher layer, count"
scalar EPL_tii2014.switch1.eth[9].mac 	rxPkFromHL:sum(packetBytes) 	90624
attr interpolationmode  none
attr source  rxPkFromHL
attr title  "packet bytes from higher layer, sum(packetBytes)"
scalar EPL_tii2014.switch1.eth[9].mac 	rxPausePkUnits:count 	0
attr interpolationmode  none
attr title  "pause units received, count"
scalar EPL_tii2014.switch1.eth[9].mac 	rxPausePkUnits:sum 	0
attr interpolationmode  none
attr title  "pause units received, sum"
scalar EPL_tii2014.switch1.eth[9].mac 	txPausePkUnits:count 	0
attr interpolationmode  none
attr title  "pause units sent, count"
scalar EPL_tii2014.switch1.eth[9].mac 	txPausePkUnits:sum 	0
attr interpolationmode  none
attr title  "pause units sent, sum"
scalar EPL_tii2014.switch1.eth[9].mac 	passedUpPk:count 	42
attr interpolationmode  none
attr source  packetSentToUpper
attr title  "packets passed to higher layer, count"
scalar EPL_tii2014.switch1.eth[9].mac 	passedUpPk:sum(packetBytes) 	2688
attr interpolationmode  none
attr source  packetSentToUpper
attr title  "packets passed to higher layer, sum(packetBytes)"
scalar EPL_tii2014.switch1.eth[9].mac 	rxPkOk:count 	42
attr interpolationmode  none
attr source  rxPkOk
attr title  "packets received OK, count"
scalar EPL_tii2014.switch1.eth[9].mac 	rxPkOk:sum(packetBytes) 	2688
attr interpolationmode  none
attr source  rxPkOk
attr title  "packets received OK, sum(packetBytes)"
scalar EPL_tii2014.switch1.eth[9].mac 	txPk:count 	1416
attr interpolationmode  none
attr source  txPk
attr title  "packets transmitted, count"
scalar EPL_tii2014.switch1.eth[9].mac 	txPk:sum(packetBytes) 	90624
attr interpolationmode  none
attr source  txPk
attr title  "packets transmitted, sum(packetBytes)"
scalar EPL_tii2014.switch1.eth[9].lpi_client 	linkPLPI_time:min 	0.000258
attr source  partial_lpi_time
scalar EPL_tii2014.switch1.eth[9].lpi_client 	linkPLPI_time:max 	0.419555158584
attr source  partial_lpi_time
scalar EPL_tii2014.switch1.eth[9].lpi_client 	linkPLPI_time:timeavg 	0.20977092067137
attr source  partial_lpi_time
scalar EPL_tii2014.switch1.eth[9].lpi_client 	linkLPI_time:min 	6.840001e-06
attr source  lpi_time
scalar EPL_tii2014.switch1.eth[9].lpi_client 	linkLPI_time:max 	0.001342830016
attr source  lpi_time
scalar EPL_tii2014.switch1.eth[9].lpi_client 	linkLPI_time:timeavg 	9.4937428124275e-05
attr source  lpi_time
scalar EPL_tii2014.switch1.eth[10].mac 	"simulated time" 	0.500002509997
scalar EPL_tii2014.switch1.eth[10].mac 	full-duplex 	1
scalar EPL_tii2014.switch1.eth[10].mac 	"frames/sec sent" 	2831.9857834484
scalar EPL_tii2014.switch1.eth[10].mac 	"frames/sec rcvd" 	83.999578322621
scalar EPL_tii2014.switch1.eth[10].mac 	"bits/sec sent" 	1449976.7211256
scalar EPL_tii2014.switch1.eth[10].mac 	"bits/sec rcvd" 	43007.784101182
scalar EPL_tii2014.switch1.eth[10].mac 	"rx channel idle (%)" 	99.951616242886
scalar EPL_tii2014.switch1.eth[10].mac 	"rx channel utilization (%)" 	0.04838375711383
scalar EPL_tii2014.switch1.eth[10].mac 	droppedPkNotForUs:count 	0
attr interpolationmode  none
attr source  dropPkNotForUs
attr title  "packets dropped/not for us, count"
scalar EPL_tii2014.switch1.eth[10].mac 	droppedPkNotForUs:sum(packetBytes) 	0
attr interpolationmode  none
attr source  dropPkNotForUs
attr title  "packets dropped/not for us, sum(packetBytes)"
scalar EPL_tii2014.switch1.eth[10].mac 	droppedPkBitError:count 	0
attr interpolationmode  none
attr source  dropPkBitError
attr title  "packets dropped/bit error, count"
scalar EPL_tii2014.switch1.eth[10].mac 	droppedPkBitError:sum(packetBytes) 	0
attr interpolationmode  none
attr source  dropPkBitError
attr title  "packets dropped/bit error, sum(packetBytes)"
scalar EPL_tii2014.switch1.eth[10].mac 	droppedPkIfaceDown:count 	0
attr interpolationmode  none
attr source  dropPkIfaceDown
attr title  "packets dropped/interface down, count"
scalar EPL_tii2014.switch1.eth[10].mac 	droppedPkIfaceDown:sum(packetBytes) 	0
attr interpolationmode  none
attr source  dropPkIfaceDown
attr title  "packets dropped/interface down, sum(packetBytes)"
scalar EPL_tii2014.switch1.eth[10].mac 	rxPkFromHL:count 	1416
attr interpolationmode  none
attr source  rxPkFromHL
attr title  "packet bytes from higher layer, count"
scalar EPL_tii2014.switch1.eth[10].mac 	rxPkFromHL:sum(packetBytes) 	90624
attr interpolationmode  none
attr source  rxPkFromHL
attr title  "packet bytes from higher layer, sum(packetBytes)"
scalar EPL_tii2014.switch1.eth[10].mac 	rxPausePkUnits:count 	0
attr interpolationmode  none
attr title  "pause units received, count"
scalar EPL_tii2014.switch1.eth[10].mac 	rxPausePkUnits:sum 	0
attr interpolationmode  none
attr title  "pause units received, sum"
scalar EPL_tii2014.switch1.eth[10].mac 	txPausePkUnits:count 	0
attr interpolationmode  none
attr title  "pause units sent, count"
scalar EPL_tii2014.switch1.eth[10].mac 	txPausePkUnits:sum 	0
attr interpolationmode  none
attr title  "pause units sent, sum"
scalar EPL_tii2014.switch1.eth[10].mac 	passedUpPk:count 	42
attr interpolationmode  none
attr source  packetSentToUpper
attr title  "packets passed to higher layer, count"
scalar EPL_tii2014.switch1.eth[10].mac 	passedUpPk:sum(packetBytes) 	2688
attr interpolationmode  none
attr source  packetSentToUpper
attr title  "packets passed to higher layer, sum(packetBytes)"
scalar EPL_tii2014.switch1.eth[10].mac 	rxPkOk:count 	42
attr interpolationmode  none
attr source  rxPkOk
attr title  "packets received OK, count"
scalar EPL_tii2014.switch1.eth[10].mac 	rxPkOk:sum(packetBytes) 	2688
attr interpolationmode  none
attr source  rxPkOk
attr title  "packets received OK, sum(packetBytes)"
scalar EPL_tii2014.switch1.eth[10].mac 	txPk:count 	1416
attr interpolationmode  none
attr source  txPk
attr title  "packets transmitted, count"
scalar EPL_tii2014.switch1.eth[10].mac 	txPk:sum(packetBytes) 	90624
attr interpolationmode  none
attr source  txPk
attr title  "packets transmitted, sum(packetBytes)"
scalar EPL_tii2014.switch1.eth[10].lpi_client 	linkPLPI_time:min 	0.000258
attr source  partial_lpi_time
scalar EPL_tii2014.switch1.eth[10].lpi_client 	linkPLPI_time:max 	0.419555158584
attr source  partial_lpi_time
scalar EPL_tii2014.switch1.eth[10].lpi_client 	linkPLPI_time:timeavg 	0.20977355412514
attr source  partial_lpi_time
scalar EPL_tii2014.switch1.eth[10].lpi_client 	linkLPI_time:min 	6.840001e-06
attr source  lpi_time
scalar EPL_tii2014.switch1.eth[10].lpi_client 	linkLPI_time:max 	0.001342830016
attr source  lpi_time
scalar EPL_tii2014.switch1.eth[10].lpi_client 	linkLPI_time:timeavg 	9.4937428124275e-05
attr source  lpi_time
scalar EPL_tii2014.switch1.eth[11].mac 	"simulated time" 	0.500002509997
scalar EPL_tii2014.switch1.eth[11].mac 	full-duplex 	1
scalar EPL_tii2014.switch1.eth[11].mac 	"frames/sec sent" 	2831.9857834484
scalar EPL_tii2014.switch1.eth[11].mac 	"frames/sec rcvd" 	83.999578322621
scalar EPL_tii2014.switch1.eth[11].mac 	"bits/sec sent" 	1449976.7211256
scalar EPL_tii2014.switch1.eth[11].mac 	"bits/sec rcvd" 	43007.784101182
scalar EPL_tii2014.switch1.eth[11].mac 	"rx channel idle (%)" 	99.951616242886
scalar EPL_tii2014.switch1.eth[11].mac 	"rx channel utilization (%)" 	0.04838375711383
scalar EPL_tii2014.switch1.eth[11].mac 	droppedPkNotForUs:count 	0
attr interpolationmode  none
attr source  dropPkNotForUs
attr title  "packets dropped/not for us, count"
scalar EPL_tii2014.switch1.eth[11].mac 	droppedPkNotForUs:sum(packetBytes) 	0
attr interpolationmode  none
attr source  dropPkNotForUs
attr title  "packets dropped/not for us, sum(packetBytes)"
scalar EPL_tii2014.switch1.eth[11].mac 	droppedPkBitError:count 	0
attr interpolationmode  none
attr source  dropPkBitError
attr title  "packets dropped/bit error, count"
scalar EPL_tii2014.switch1.eth[11].mac 	droppedPkBitError:sum(packetBytes) 	0
attr interpolationmode  none
attr source  dropPkBitError
attr title  "packets dropped/bit error, sum(packetBytes)"
scalar EPL_tii2014.switch1.eth[11].mac 	droppedPkIfaceDown:count 	0
attr interpolationmode  none
attr source  dropPkIfaceDown
attr title  "packets dropped/interface down, count"
scalar EPL_tii2014.switch1.eth[11].mac 	droppedPkIfaceDown:sum(packetBytes) 	0
attr interpolationmode  none
attr source  dropPkIfaceDown
attr title  "packets dropped/interface down, sum(packetBytes)"
scalar EPL_tii2014.switch1.eth[11].mac 	rxPkFromHL:count 	1416
attr interpolationmode  none
attr source  rxPkFromHL
attr title  "packet bytes from higher layer, count"
scalar EPL_tii2014.switch1.eth[11].mac 	rxPkFromHL:sum(packetBytes) 	90624
attr interpolationmode  none
attr source  rxPkFromHL
attr title  "packet bytes from higher layer, sum(packetBytes)"
scalar EPL_tii2014.switch1.eth[11].mac 	rxPausePkUnits:count 	0
attr interpolationmode  none
attr title  "pause units received, count"
scalar EPL_tii2014.switch1.eth[11].mac 	rxPausePkUnits:sum 	0
attr interpolationmode  none
attr title  "pause units received, sum"
scalar EPL_tii2014.switch1.eth[11].mac 	txPausePkUnits:count 	0
attr interpolationmode  none
attr title  "pause units sent, count"
scalar EPL_tii2014.switch1.eth[11].mac 	txPausePkUnits:sum 	0
attr interpolationmode  none
attr title  "pause units sent, sum"
scalar EPL_tii2014.switch1.eth[11].mac 	passedUpPk:count 	42
attr interpolationmode  none
attr source  packetSentToUpper
attr title  "packets passed to higher layer, count"
scalar EPL_tii2014.switch1.eth[11].mac 	passedUpPk:sum(packetBytes) 	2688
attr interpolationmode  none
attr source  packetSentToUpper
attr title  "packets passed to higher layer, sum(packetBytes)"
scalar EPL_tii2014.switch1.eth[11].mac 	rxPkOk:count 	42
attr interpolationmode  none
attr source  rxPkOk
attr title  "packets received OK, count"
scalar EPL_tii2014.switch1.eth[11].mac 	rxPkOk:sum(packetBytes) 	2688
attr interpolationmode  none
attr source  rxPkOk
attr title  "packets received OK, sum(packetBytes)"
scalar EPL_tii2014.switch1.eth[11].mac 	txPk:count 	1416
attr interpolationmode  none
attr source  txPk
attr title  "packets transmitted, count"
scalar EPL_tii2014.switch1.eth[11].mac 	txPk:sum(packetBytes) 	90624
attr interpolationmode  none
attr source  txPk
attr title  "packets transmitted, sum(packetBytes)"
scalar EPL_tii2014.switch1.eth[11].lpi_client 	linkPLPI_time:min 	0.000258
attr source  partial_lpi_time
scalar EPL_tii2014.switch1.eth[11].lpi_client 	linkPLPI_time:max 	0.419555158584
attr source  partial_lpi_time
scalar EPL_tii2014.switch1.eth[11].lpi_client 	linkPLPI_time:timeavg 	0.2097761875789
attr source  partial_lpi_time
scalar EPL_tii2014.switch1.eth[11].lpi_client 	linkLPI_time:min 	6.840001e-06
attr source  lpi_time
scalar EPL_tii2014.switch1.eth[11].lpi_client 	linkLPI_time:max 	0.001342830016
attr source  lpi_time
scalar EPL_tii2014.switch1.eth[11].lpi_client 	linkLPI_time:timeavg 	9.4937428124275e-05
attr source  lpi_time
scalar EPL_tii2014.switch1.eth[12].mac 	"simulated time" 	0.500002509997
scalar EPL_tii2014.switch1.eth[12].mac 	full-duplex 	1
scalar EPL_tii2014.switch1.eth[12].mac 	"frames/sec sent" 	2831.9857834484
scalar EPL_tii2014.switch1.eth[12].mac 	"frames/sec rcvd" 	83.999578322621
scalar EPL_tii2014.switch1.eth[12].mac 	"bits/sec sent" 	1449976.7211256
scalar EPL_tii2014.switch1.eth[12].mac 	"bits/sec rcvd" 	43007.784101182
scalar EPL_tii2014.switch1.eth[12].mac 	"rx channel idle (%)" 	99.951616242886
scalar EPL_tii2014.switch1.eth[12].mac 	"rx channel utilization (%)" 	0.04838375711383
scalar EPL_tii2014.switch1.eth[12].mac 	droppedPkNotForUs:count 	0
attr interpolationmode  none
attr source  dropPkNotForUs
attr title  "packets dropped/not for us, count"
scalar EPL_tii2014.switch1.eth[12].mac 	droppedPkNotForUs:sum(packetBytes) 	0
attr interpolationmode  none
attr source  dropPkNotForUs
attr title  "packets dropped/not for us, sum(packetBytes)"
scalar EPL_tii2014.switch1.eth[12].mac 	droppedPkBitError:count 	0
attr interpolationmode  none
attr source  dropPkBitError
attr title  "packets dropped/bit error, count"
scalar EPL_tii2014.switch1.eth[12].mac 	droppedPkBitError:sum(packetBytes) 	0
attr interpolationmode  none
attr source  dropPkBitError
attr title  "packets dropped/bit error, sum(packetBytes)"
scalar EPL_tii2014.switch1.eth[12].mac 	droppedPkIfaceDown:count 	0
attr interpolationmode  none
attr source  dropPkIfaceDown
attr title  "packets dropped/interface down, count"
scalar EPL_tii2014.switch1.eth[12].mac 	droppedPkIfaceDown:sum(packetBytes) 	0
attr interpolationmode  none
attr source  dropPkIfaceDown
attr title  "packets dropped/interface down, sum(packetBytes)"
scalar EPL_tii2014.switch1.eth[12].mac 	rxPkFromHL:count 	1416
attr interpolationmode  none
attr source  rxPkFromHL
attr title  "packet bytes from higher layer, count"
scalar EPL_tii2014.switch1.eth[12].mac 	rxPkFromHL:sum(packetBytes) 	90624
attr interpolationmode  none
attr source  rxPkFromHL
attr title  "packet bytes from higher layer, sum(packetBytes)"
scalar EPL_tii2014.switch1.eth[12].mac 	rxPausePkUnits:count 	0
attr interpolationmode  none
attr title  "pause units received, count"
scalar EPL_tii2014.switch1.eth[12].mac 	rxPausePkUnits:sum 	0
attr interpolationmode  none
attr title  "pause units received, sum"
scalar EPL_tii2014.switch1.eth[12].mac 	txPausePkUnits:count 	0
attr interpolationmode  none
attr title  "pause units sent, count"
scalar EPL_tii2014.switch1.eth[12].mac 	txPausePkUnits:sum 	0
attr interpolationmode  none
attr title  "pause units sent, sum"
scalar EPL_tii2014.switch1.eth[12].mac 	passedUpPk:count 	42
attr interpolationmode  none
attr source  packetSentToUpper
attr title  "packets passed to higher layer, count"
scalar EPL_tii2014.switch1.eth[12].mac 	passedUpPk:sum(packetBytes) 	2688
attr interpolationmode  none
attr source  packetSentToUpper
attr title  "packets passed to higher layer, sum(packetBytes)"
scalar EPL_tii2014.switch1.eth[12].mac 	rxPkOk:count 	42
attr interpolationmode  none
attr source  rxPkOk
attr title  "packets received OK, count"
scalar EPL_tii2014.switch1.eth[12].mac 	rxPkOk:sum(packetBytes) 	2688
attr interpolationmode  none
attr source  rxPkOk
attr title  "packets received OK, sum(packetBytes)"
scalar EPL_tii2014.switch1.eth[12].mac 	txPk:count 	1416
attr interpolationmode  none
attr source  txPk
attr title  "packets transmitted, count"
scalar EPL_tii2014.switch1.eth[12].mac 	txPk:sum(packetBytes) 	90624
attr interpolationmode  none
attr source  txPk
attr title  "packets transmitted, sum(packetBytes)"
scalar EPL_tii2014.switch1.eth[12].lpi_client 	linkPLPI_time:min 	0.000258
attr source  partial_lpi_time
scalar EPL_tii2014.switch1.eth[12].lpi_client 	linkPLPI_time:max 	0.419555158584
attr source  partial_lpi_time
scalar EPL_tii2014.switch1.eth[12].lpi_client 	linkPLPI_time:timeavg 	0.20977882103266
attr source  partial_lpi_time
scalar EPL_tii2014.switch1.eth[12].lpi_client 	linkLPI_time:min 	6.840001e-06
attr source  lpi_time
scalar EPL_tii2014.switch1.eth[12].lpi_client 	linkLPI_time:max 	0.001342830016
attr source  lpi_time
scalar EPL_tii2014.switch1.eth[12].lpi_client 	linkLPI_time:timeavg 	9.4937428124275e-05
attr source  lpi_time
scalar EPL_tii2014.switch1.eth[13].mac 	"simulated time" 	0.500002509997
scalar EPL_tii2014.switch1.eth[13].mac 	full-duplex 	1
scalar EPL_tii2014.switch1.eth[13].mac 	"frames/sec sent" 	2831.9857834484
scalar EPL_tii2014.switch1.eth[13].mac 	"frames/sec rcvd" 	83.999578322621
scalar EPL_tii2014.switch1.eth[13].mac 	"bits/sec sent" 	1449976.7211256
scalar EPL_tii2014.switch1.eth[13].mac 	"bits/sec rcvd" 	43007.784101182
scalar EPL_tii2014.switch1.eth[13].mac 	"rx channel idle (%)" 	99.951616242886
scalar EPL_tii2014.switch1.eth[13].mac 	"rx channel utilization (%)" 	0.04838375711383
scalar EPL_tii2014.switch1.eth[13].mac 	droppedPkNotForUs:count 	0
attr interpolationmode  none
attr source  dropPkNotForUs
attr title  "packets dropped/not for us, count"
scalar EPL_tii2014.switch1.eth[13].mac 	droppedPkNotForUs:sum(packetBytes) 	0
attr interpolationmode  none
attr source  dropPkNotForUs
attr title  "packets dropped/not for us, sum(packetBytes)"
scalar EPL_tii2014.switch1.eth[13].mac 	droppedPkBitError:count 	0
attr interpolationmode  none
attr source  dropPkBitError
attr title  "packets dropped/bit error, count"
scalar EPL_tii2014.switch1.eth[13].mac 	droppedPkBitError:sum(packetBytes) 	0
attr interpolationmode  none
attr source  dropPkBitError
attr title  "packets dropped/bit error, sum(packetBytes)"
scalar EPL_tii2014.switch1.eth[13].mac 	droppedPkIfaceDown:count 	0
attr interpolationmode  none
attr source  dropPkIfaceDown
attr title  "packets dropped/interface down, count"
scalar EPL_tii2014.switch1.eth[13].mac 	droppedPkIfaceDown:sum(packetBytes) 	0
attr interpolationmode  none
attr source  dropPkIfaceDown
attr title  "packets dropped/interface down, sum(packetBytes)"
scalar EPL_tii2014.switch1.eth[13].mac 	rxPkFromHL:count 	1416
attr interpolationmode  none
attr source  rxPkFromHL
attr title  "packet bytes from higher layer, count"
scalar EPL_tii2014.switch1.eth[13].mac 	rxPkFromHL:sum(packetBytes) 	90624
attr interpolationmode  none
attr source  rxPkFromHL
attr title  "packet bytes from higher layer, sum(packetBytes)"
scalar EPL_tii2014.switch1.eth[13].mac 	rxPausePkUnits:count 	0
attr interpolationmode  none
attr title  "pause units received, count"
scalar EPL_tii2014.switch1.eth[13].mac 	rxPausePkUnits:sum 	0
attr interpolationmode  none
attr title  "pause units received, sum"
scalar EPL_tii2014.switch1.eth[13].mac 	txPausePkUnits:count 	0
attr interpolationmode  none
attr title  "pause units sent, count"
scalar EPL_tii2014.switch1.eth[13].mac 	txPausePkUnits:sum 	0
attr interpolationmode  none
attr title  "pause units sent, sum"
scalar EPL_tii2014.switch1.eth[13].mac 	passedUpPk:count 	42
attr interpolationmode  none
attr source  packetSentToUpper
attr title  "packets passed to higher layer, count"
scalar EPL_tii2014.switch1.eth[13].mac 	passedUpPk:sum(packetBytes) 	2688
attr interpolationmode  none
attr source  packetSentToUpper
attr title  "packets passed to higher layer, sum(packetBytes)"
scalar EPL_tii2014.switch1.eth[13].mac 	rxPkOk:count 	42
attr interpolationmode  none
attr source  rxPkOk
attr title  "packets received OK, count"
scalar EPL_tii2014.switch1.eth[13].mac 	rxPkOk:sum(packetBytes) 	2688
attr interpolationmode  none
attr source  rxPkOk
attr title  "packets received OK, sum(packetBytes)"
scalar EPL_tii2014.switch1.eth[13].mac 	txPk:count 	1416
attr interpolationmode  none
attr source  txPk
attr title  "packets transmitted, count"
scalar EPL_tii2014.switch1.eth[13].mac 	txPk:sum(packetBytes) 	90624
attr interpolationmode  none
attr source  txPk
attr title  "packets transmitted, sum(packetBytes)"
scalar EPL_tii2014.switch1.eth[13].lpi_client 	linkPLPI_time:min 	0.000258
attr source  partial_lpi_time
scalar EPL_tii2014.switch1.eth[13].lpi_client 	linkPLPI_time:max 	0.419555158584
attr source  partial_lpi_time
scalar EPL_tii2014.switch1.eth[13].lpi_client 	linkPLPI_time:timeavg 	0.20978145448643
attr source  partial_lpi_time
scalar EPL_tii2014.switch1.eth[13].lpi_client 	linkLPI_time:min 	6.840001e-06
attr source  lpi_time
scalar EPL_tii2014.switch1.eth[13].lpi_client 	linkLPI_time:max 	0.001342830016
attr source  lpi_time
scalar EPL_tii2014.switch1.eth[13].lpi_client 	linkLPI_time:timeavg 	9.4937428124275e-05
attr source  lpi_time
scalar EPL_tii2014.switch1.eth[14].mac 	"simulated time" 	0.500002509997
scalar EPL_tii2014.switch1.eth[14].mac 	full-duplex 	1
scalar EPL_tii2014.switch1.eth[14].mac 	"frames/sec sent" 	2831.9857834484
scalar EPL_tii2014.switch1.eth[14].mac 	"frames/sec rcvd" 	83.999578322621
scalar EPL_tii2014.switch1.eth[14].mac 	"bits/sec sent" 	1449976.7211256
scalar EPL_tii2014.switch1.eth[14].mac 	"bits/sec rcvd" 	43007.784101182
scalar EPL_tii2014.switch1.eth[14].mac 	"rx channel idle (%)" 	99.951616242886
scalar EPL_tii2014.switch1.eth[14].mac 	"rx channel utilization (%)" 	0.04838375711383
scalar EPL_tii2014.switch1.eth[14].mac 	droppedPkNotForUs:count 	0
attr interpolationmode  none
attr source  dropPkNotForUs
attr title  "packets dropped/not for us, count"
scalar EPL_tii2014.switch1.eth[14].mac 	droppedPkNotForUs:sum(packetBytes) 	0
attr interpolationmode  none
attr source  dropPkNotForUs
attr title  "packets dropped/not for us, sum(packetBytes)"
scalar EPL_tii2014.switch1.eth[14].mac 	droppedPkBitError:count 	0
attr interpolationmode  none
attr source  dropPkBitError
attr title  "packets dropped/bit error, count"
scalar EPL_tii2014.switch1.eth[14].mac 	droppedPkBitError:sum(packetBytes) 	0
attr interpolationmode  none
attr source  dropPkBitError
attr title  "packets dropped/bit error, sum(packetBytes)"
scalar EPL_tii2014.switch1.eth[14].mac 	droppedPkIfaceDown:count 	0
attr interpolationmode  none
attr source  dropPkIfaceDown
attr title  "packets dropped/interface down, count"
[...]
scalar EPL_tii2014.Subnet2_Host[6].mac 	rxPkFromHL:sum(packetBytes) 	2624
attr interpolationmode  none
attr source  rxPkFromHL
attr title  "packet bytes from higher layer, sum(packetBytes)"
scalar EPL_tii2014.Subnet2_Host[6].mac 	rxPausePkUnits:count 	0
attr interpolationmode  none
attr title  "pause units received, count"
scalar EPL_tii2014.Subnet2_Host[6].mac 	rxPausePkUnits:sum 	0
attr interpolationmode  none
attr title  "pause units received, sum"
scalar EPL_tii2014.Subnet2_Host[6].mac 	txPausePkUnits:count 	0
attr interpolationmode  none
attr title  "pause units sent, count"
scalar EPL_tii2014.Subnet2_Host[6].mac 	txPausePkUnits:sum 	0
attr interpolationmode  none
attr title  "pause units sent, sum"
scalar EPL_tii2014.Subnet2_Host[6].mac 	passedUpPk:count 	1334
attr interpolationmode  none
attr source  packetSentToUpper
attr title  "packets passed to higher layer, count"
scalar EPL_tii2014.Subnet2_Host[6].mac 	passedUpPk:sum(packetBytes) 	85376
attr interpolationmode  none
attr source  packetSentToUpper
attr title  "packets passed to higher layer, sum(packetBytes)"
scalar EPL_tii2014.Subnet2_Host[6].mac 	rxPkOk:count 	1334
attr interpolationmode  none
attr source  rxPkOk
attr title  "packets received OK, count"
scalar EPL_tii2014.Subnet2_Host[6].mac 	rxPkOk:sum(packetBytes) 	85376
attr interpolationmode  none
attr source  rxPkOk
attr title  "packets received OK, sum(packetBytes)"
scalar EPL_tii2014.Subnet2_Host[6].mac 	txPk:count 	41
attr interpolationmode  none
attr source  txPk
attr title  "packets transmitted, count"
scalar EPL_tii2014.Subnet2_Host[6].mac 	txPk:sum(packetBytes) 	2624
attr interpolationmode  none
attr source  txPk
attr title  "packets transmitted, sum(packetBytes)"
scalar EPL_tii2014.Subnet2_Host[6].lpi_client 	linkPLPI_time:min 	0.000258
attr source  partial_lpi_time
scalar EPL_tii2014.Subnet2_Host[6].lpi_client 	linkPLPI_time:max 	0.012776119959
attr source  partial_lpi_time
scalar EPL_tii2014.Subnet2_Host[6].lpi_client 	linkPLPI_time:timeavg 	0.0065259545177451
attr source  partial_lpi_time
scalar EPL_tii2014.Subnet2_Host[6].lpi_client 	linkLPI_time:min 	0.009211849997
attr source  lpi_time
scalar EPL_tii2014.Subnet2_Host[6].lpi_client 	linkLPI_time:max 	0.011694680001
attr source  lpi_time
scalar EPL_tii2014.Subnet2_Host[6].lpi_client 	linkLPI_time:timeavg 	0.011633942026799
attr source  lpi_time
scalar EPL_tii2014.Subnet2_Host[6].CN 	sentPk:count 	41
attr interpolationmode  none
attr source  sentPk
attr title  "packets sent, count"
scalar EPL_tii2014.Subnet2_Host[6].CN 	sentPk:sum(packetBytes) 	1845
attr interpolationmode  none
attr source  sentPk
attr title  "packets sent, sum(packetBytes)"
scalar EPL_tii2014.Subnet2_Host[6].CN 	rcvdPk:count 	41
attr interpolationmode  none
attr source  rcvdPk
attr title  "packets received, count"
scalar EPL_tii2014.Subnet2_Host[6].CN 	rcvdPk:sum(packetBytes) 	41
attr interpolationmode  none
attr source  rcvdPk
attr title  "packets received, sum(packetBytes)"
scalar EPL_tii2014.Subnet2_Host[7].llc 	pauseSent:count 	0
attr title  "pause sent, count"
scalar EPL_tii2014.Subnet2_Host[7].llc 	pauseSent:sum 	0
attr title  "pause sent, sum"
scalar EPL_tii2014.Subnet2_Host[7].llc 	decapPk:count 	1334
attr interpolationmode  none
attr source  decapPk
attr title  "packets decapsulated, count"
scalar EPL_tii2014.Subnet2_Host[7].llc 	decapPk:sum(packetBytes) 	54574
attr interpolationmode  none
attr source  decapPk
attr title  "packets decapsulated, sum(packetBytes)"
scalar EPL_tii2014.Subnet2_Host[7].llc 	encapPk:count 	41
attr interpolationmode  none
attr source  encapPk
attr title  "packets encapsulated, count"
scalar EPL_tii2014.Subnet2_Host[7].llc 	encapPk:sum(packetBytes) 	1845
attr interpolationmode  none
attr source  encapPk
attr title  "packets encapsulated, sum(packetBytes)"
scalar EPL_tii2014.Subnet2_Host[7].mac 	"simulated time" 	0.500002509997
scalar EPL_tii2014.Subnet2_Host[7].mac 	full-duplex 	1
scalar EPL_tii2014.Subnet2_Host[7].mac 	"frames/sec sent" 	81.999588362558
scalar EPL_tii2014.Subnet2_Host[7].mac 	"frames/sec rcvd" 	2667.9866067232
scalar EPL_tii2014.Subnet2_Host[7].mac 	"bits/sec sent" 	41983.78924163
scalar EPL_tii2014.Subnet2_Host[7].mac 	"bits/sec rcvd" 	1366009.1426423
scalar EPL_tii2014.Subnet2_Host[7].mac 	"rx channel idle (%)" 	98.368776188734
scalar EPL_tii2014.Subnet2_Host[7].mac 	"rx channel utilization (%)" 	1.6312238112663
scalar EPL_tii2014.Subnet2_Host[7].mac 	droppedPkNotForUs:count 	82
attr interpolationmode  none
attr source  dropPkNotForUs
attr title  "packets dropped/not for us, count"
scalar EPL_tii2014.Subnet2_Host[7].mac 	droppedPkNotForUs:sum(packetBytes) 	5904
attr interpolationmode  none
attr source  dropPkNotForUs
attr title  "packets dropped/not for us, sum(packetBytes)"
scalar EPL_tii2014.Subnet2_Host[7].mac 	droppedPkBitError:count 	0
attr interpolationmode  none
attr source  dropPkBitError
attr title  "packets dropped/bit error, count"
scalar EPL_tii2014.Subnet2_Host[7].mac 	droppedPkBitError:sum(packetBytes) 	0
attr interpolationmode  none
attr source  dropPkBitError
attr title  "packets dropped/bit error, sum(packetBytes)"
scalar EPL_tii2014.Subnet2_Host[7].mac 	droppedPkIfaceDown:count 	0
attr interpolationmode  none
attr source  dropPkIfaceDown
attr title  "packets dropped/interface down, count"
scalar EPL_tii2014.Subnet2_Host[7].mac 	droppedPkIfaceDown:sum(packetBytes) 	0
attr interpolationmode  none
attr source  dropPkIfaceDown
attr title  "packets dropped/interface down, sum(packetBytes)"
scalar EPL_tii2014.Subnet2_Host[7].mac 	rxPkFromHL:count 	41
attr interpolationmode  none
attr source  rxPkFromHL
attr title  "packet bytes from higher layer, count"
scalar EPL_tii2014.Subnet2_Host[7].mac 	rxPkFromHL:sum(packetBytes) 	2624
attr interpolationmode  none
attr source  rxPkFromHL
attr title  "packet bytes from higher layer, sum(packetBytes)"
scalar EPL_tii2014.Subnet2_Host[7].mac 	rxPausePkUnits:count 	0
attr interpolationmode  none
attr title  "pause units received, count"
scalar EPL_tii2014.Subnet2_Host[7].mac 	rxPausePkUnits:sum 	0
attr interpolationmode  none
attr title  "pause units received, sum"
scalar EPL_tii2014.Subnet2_Host[7].mac 	txPausePkUnits:count 	0
attr interpolationmode  none
attr title  "pause units sent, count"
scalar EPL_tii2014.Subnet2_Host[7].mac 	txPausePkUnits:sum 	0
attr interpolationmode  none
attr title  "pause units sent, sum"
scalar EPL_tii2014.Subnet2_Host[7].mac 	passedUpPk:count 	1334
attr interpolationmode  none
attr source  packetSentToUpper
attr title  "packets passed to higher layer, count"
scalar EPL_tii2014.Subnet2_Host[7].mac 	passedUpPk:sum(packetBytes) 	85376
attr interpolationmode  none
attr source  packetSentToUpper
attr title  "packets passed to higher layer, sum(packetBytes)"
scalar EPL_tii2014.Subnet2_Host[7].mac 	rxPkOk:count 	1334
attr interpolationmode  none
attr source  rxPkOk
attr title  "packets received OK, count"
scalar EPL_tii2014.Subnet2_Host[7].mac 	rxPkOk:sum(packetBytes) 	85376
attr interpolationmode  none
attr source  rxPkOk
attr title  "packets received OK, sum(packetBytes)"
scalar EPL_tii2014.Subnet2_Host[7].mac 	txPk:count 	41
attr interpolationmode  none
attr source  txPk
attr title  "packets transmitted, count"
scalar EPL_tii2014.Subnet2_Host[7].mac 	txPk:sum(packetBytes) 	2624
attr interpolationmode  none
attr source  txPk
attr title  "packets transmitted, sum(packetBytes)"
scalar EPL_tii2014.Subnet2_Host[7].lpi_client 	linkPLPI_time:min 	0.000258
attr source  partial_lpi_time
scalar EPL_tii2014.Subnet2_Host[7].lpi_client 	linkPLPI_time:max 	0.012776119959
attr source  partial_lpi_time
scalar EPL_tii2014.Subnet2_Host[7].lpi_client 	linkPLPI_time:timeavg 	0.0065181352095821
attr source  partial_lpi_time
scalar EPL_tii2014.Subnet2_Host[7].lpi_client 	linkLPI_time:min 	0.009524009997
attr source  lpi_time
scalar EPL_tii2014.Subnet2_Host[7].lpi_client 	linkLPI_time:max 	0.011694680001
attr source  lpi_time
scalar EPL_tii2014.Subnet2_Host[7].lpi_client 	linkLPI_time:timeavg 	0.011641544646505
attr source  lpi_time
scalar EPL_tii2014.Subnet2_Host[7].CN 	sentPk:count 	41
attr interpolationmode  none
attr source  sentPk
attr title  "packets sent, count"
scalar EPL_tii2014.Subnet2_Host[7].CN 	sentPk:sum(packetBytes) 	1845
attr interpolationmode  none
attr source  sentPk
attr title  "packets sent, sum(packetBytes)"
scalar EPL_tii2014.Subnet2_Host[7].CN 	rcvdPk:count 	41
attr interpolationmode  none
attr source  rcvdPk
attr title  "packets received, count"
scalar EPL_tii2014.Subnet2_Host[7].CN 	rcvdPk:sum(packetBytes) 	41
attr interpolationmode  none
attr source  rcvdPk
attr title  "packets received, sum(packetBytes)"
scalar EPL_tii2014.Subnet2_Host[8].llc 	pauseSent:count 	0
attr title  "pause sent, count"
scalar EPL_tii2014.Subnet2_Host[8].llc 	pauseSent:sum 	0
attr title  "pause sent, sum"
scalar EPL_tii2014.Subnet2_Host[8].llc 	decapPk:count 	1334
attr interpolationmode  none
attr source  decapPk
attr title  "packets decapsulated, count"
scalar EPL_tii2014.Subnet2_Host[8].llc 	decapPk:sum(packetBytes) 	54574
attr interpolationmode  none
attr source  decapPk
attr title  "packets decapsulated, sum(packetBytes)"
scalar EPL_tii2014.Subnet2_Host[8].llc 	encapPk:count 	41
attr interpolationmode  none
attr source  encapPk
attr title  "packets encapsulated, count"
scalar EPL_tii2014.Subnet2_Host[8].llc 	encapPk:sum(packetBytes) 	1845
attr interpolationmode  none
attr source  encapPk
attr title  "packets encapsulated, sum(packetBytes)"
scalar EPL_tii2014.Subnet2_Host[8].mac 	"simulated time" 	0.500002509997
scalar EPL_tii2014.Subnet2_Host[8].mac 	full-duplex 	1
scalar EPL_tii2014.Subnet2_Host[8].mac 	"frames/sec sent" 	81.999588362558
scalar EPL_tii2014.Subnet2_Host[8].mac 	"frames/sec rcvd" 	2667.9866067232
scalar EPL_tii2014.Subnet2_Host[8].mac 	"bits/sec sent" 	41983.78924163
scalar EPL_tii2014.Subnet2_Host[8].mac 	"bits/sec rcvd" 	1366009.1426423
scalar EPL_tii2014.Subnet2_Host[8].mac 	"rx channel idle (%)" 	98.368776188734
scalar EPL_tii2014.Subnet2_Host[8].mac 	"rx channel utilization (%)" 	1.6312238112663
scalar EPL_tii2014.Subnet2_Host[8].mac 	droppedPkNotForUs:count 	82
attr interpolationmode  none
attr source  dropPkNotForUs
attr title  "packets dropped/not for us, count"
scalar EPL_tii2014.Subnet2_Host[8].mac 	droppedPkNotForUs:sum(packetBytes) 	5904
attr interpolationmode  none
attr source  dropPkNotForUs
attr title  "packets dropped/not for us, sum(packetBytes)"
scalar EPL_tii2014.Subnet2_Host[8].mac 	droppedPkBitError:count 	0
attr interpolationmode  none
attr source  dropPkBitError
attr title  "packets dropped/bit error, count"
scalar EPL_tii2014.Subnet2_Host[8].mac 	droppedPkBitError:sum(packetBytes) 	0
attr interpolationmode  none
attr source  dropPkBitError
attr title  "packets dropped/bit error, sum(packetBytes)"
scalar EPL_tii2014.Subnet2_Host[8].mac 	droppedPkIfaceDown:count 	0
attr interpolationmode  none
attr source  dropPkIfaceDown
attr title  "packets dropped/interface down, count"
scalar EPL_tii2014.Subnet2_Host[8].mac 	droppedPkIfaceDown:sum(packetBytes) 	0
attr interpolationmode  none
attr source  dropPkIfaceDown
attr title  "packets dropped/interface down, sum(packetBytes)"
scalar EPL_tii2014.Subnet2_Host[8].mac 	rxPkFromHL:count 	41
attr interpolationmode  none
attr source  rxPkFromHL
attr title  "packet bytes from higher layer, count"
scalar EPL_tii2014.Subnet2_Host[8].mac 	rxPkFromHL:sum(packetBytes) 	2624
attr interpolationmode  none
attr source  rxPkFromHL
attr title  "packet bytes from higher layer, sum(packetBytes)"
scalar EPL_tii2014.Subnet2_Host[8].mac 	rxPausePkUnits:count 	0
attr interpolationmode  none
attr title  "pause units received, count"
scalar EPL_tii2014.Subnet2_Host[8].mac 	rxPausePkUnits:sum 	0
attr interpolationmode  none
attr title  "pause units received, sum"
scalar EPL_tii2014.Subnet2_Host[8].mac 	txPausePkUnits:count 	0
attr interpolationmode  none
attr title  "pause units sent, count"
scalar EPL_tii2014.Subnet2_Host[8].mac 	txPausePkUnits:sum 	0
attr interpolationmode  none
attr title  "pause units sent, sum"
scalar EPL_tii2014.Subnet2_Host[8].mac 	passedUpPk:count 	1334
attr interpolationmode  none
attr source  packetSentToUpper
attr title  "packets passed to higher layer, count"
scalar EPL_tii2014.Subnet2_Host[8].mac 	passedUpPk:sum(packetBytes) 	85376
attr interpolationmode  none
attr source  packetSentToUpper
attr title  "packets passed to higher layer, sum(packetBytes)"
scalar EPL_tii2014.Subnet2_Host[8].mac 	rxPkOk:count 	1334
attr interpolationmode  none
attr source  rxPkOk
attr title  "packets received OK, count"
scalar EPL_tii2014.Subnet2_Host[8].mac 	rxPkOk:sum(packetBytes) 	85376
attr interpolationmode  none
attr source  rxPkOk
attr title  "packets received OK, sum(packetBytes)"
scalar EPL_tii2014.Subnet2_Host[8].mac 	txPk:count 	41
attr interpolationmode  none
attr source  txPk
attr title  "packets transmitted, count"
scalar EPL_tii2014.Subnet2_Host[8].mac 	txPk:sum(packetBytes) 	2624
attr interpolationmode  none
attr source  txPk
attr title  "packets transmitted, sum(packetBytes)"
scalar EPL_tii2014.Subnet2_Host[8].lpi_client 	linkPLPI_time:min 	0.000258
attr source  partial_lpi_time
scalar EPL_tii2014.Subnet2_Host[8].lpi_client 	linkPLPI_time:max 	0.012776119959
attr source  partial_lpi_time
scalar EPL_tii2014.Subnet2_Host[8].lpi_client 	linkPLPI_time:timeavg 	0.0065103159014192
attr source  partial_lpi_time
scalar EPL_tii2014.Subnet2_Host[8].lpi_client 	linkLPI_time:min 	0.009836169997
attr source  lpi_time
scalar EPL_tii2014.Subnet2_Host[8].lpi_client 	linkLPI_time:max 	0.011694680001
attr source  lpi_time
scalar EPL_tii2014.Subnet2_Host[8].lpi_client 	linkLPI_time:timeavg 	0.011649156954693
attr source  lpi_time
scalar EPL_tii2014.Subnet2_Host[8].CN 	sentPk:count 	41
attr interpolationmode  none
attr source  sentPk
attr title  "packets sent, count"
scalar EPL_tii2014.Subnet2_Host[8].CN 	sentPk:sum(packetBytes) 	1845
attr interpolationmode  none
attr source  sentPk
attr title  "packets sent, sum(packetBytes)"
scalar EPL_tii2014.Subnet2_Host[8].CN 	rcvdPk:count 	41
attr interpolationmode  none
attr source  rcvdPk
attr title  "packets received, count"
scalar EPL_tii2014.Subnet2_Host[8].CN 	rcvdPk:sum(packetBytes) 	41
attr interpolationmode  none
attr source  rcvdPk
attr title  "packets received, sum(packetBytes)"
scalar EPL_tii2014.Subnet2_Host[9].llc 	pauseSent:count 	0
attr title  "pause sent, count"
scalar EPL_tii2014.Subnet2_Host[9].llc 	pauseSent:sum 	0
attr title  "pause sent, sum"
scalar EPL_tii2014.Subnet2_Host[9].llc 	decapPk:count 	1334
attr interpolationmode  none
attr source  decapPk
attr title  "packets decapsulated, count"
scalar EPL_tii2014.Subnet2_Host[9].llc 	decapPk:sum(packetBytes) 	54574
attr interpolationmode  none
attr source  decapPk
attr title  "packets decapsulated, sum(packetBytes)"
scalar EPL_tii2014.Subnet2_Host[9].llc 	encapPk:count 	41
attr interpolationmode  none
attr source  encapPk
attr title  "packets encapsulated, count"
scalar EPL_tii2014.Subnet2_Host[9].llc 	encapPk:sum(packetBytes) 	1845
attr interpolationmode  none
attr source  encapPk
attr title  "packets encapsulated, sum(packetBytes)"
scalar EPL_tii2014.Subnet2_Host[9].mac 	"simulated time" 	0.500002509997
scalar EPL_tii2014.Subnet2_Host[9].mac 	full-duplex 	1
scalar EPL_tii2014.Subnet2_Host[9].mac 	"frames/sec sent" 	81.999588362558
scalar EPL_tii2014.Subnet2_Host[9].mac 	"frames/sec rcvd" 	2667.9866067232
scalar EPL_tii2014.Subnet2_Host[9].mac 	"bits/sec sent" 	41983.78924163
scalar EPL_tii2014.Subnet2_Host[9].mac 	"bits/sec rcvd" 	1366009.1426423
scalar EPL_tii2014.Subnet2_Host[9].mac 	"rx channel idle (%)" 	98.368776188734
scalar EPL_tii2014.Subnet2_Host[9].mac 	"rx channel utilization (%)" 	1.6312238112663
scalar EPL_tii2014.Subnet2_Host[9].mac 	droppedPkNotForUs:count 	82
attr interpolationmode  none
attr source  dropPkNotForUs
attr title  "packets dropped/not for us, count"
scalar EPL_tii2014.Subnet2_Host[9].mac 	droppedPkNotForUs:sum(packetBytes) 	5904
attr interpolationmode  none
attr source  dropPkNotForUs
attr title  "packets dropped/not for us, sum(packetBytes)"
scalar EPL_tii2014.Subnet2_Host[9].mac 	droppedPkBitError:count 	0
attr interpolationmode  none
attr source  dropPkBitError
attr title  "packets dropped/bit error, count"
scalar EPL_tii2014.Subnet2_Host[9].mac 	droppedPkBitError:sum(packetBytes) 	0
attr interpolationmode  none
attr source  dropPkBitError
attr title  "packets dropped/bit error, sum(packetBytes)"
scalar EPL_tii2014.Subnet2_Host[9].mac 	droppedPkIfaceDown:count 	0
attr interpolationmode  none
attr source  dropPkIfaceDown
attr title  "packets dropped/interface down, count"
scalar EPL_tii2014.Subnet2_Host[9].mac 	droppedPkIfaceDown:sum(packetBytes) 	0
attr interpolationmode  none
attr source  dropPkIfaceDown
attr title  "packets dropped/interface down, sum(packetBytes)"
scalar EPL_tii2014.Subnet2_Host[9].mac 	rxPkFromHL:count 	41
attr interpolationmode  none
attr source  rxPkFromHL
attr title  "packet bytes from higher layer, count"
scalar EPL_tii2014.Subnet2_Host[9].mac 	rxPkFromHL:sum(packetBytes) 	2624
attr interpolationmode  none
attr source  rxPkFromHL
attr title  "packet bytes from higher layer, sum(packetBytes)"
scalar EPL_tii2014.Subnet2_Host[9].mac 	rxPausePkUnits:count 	0
attr interpolationmode  none
attr title  "pause units received, count"
scalar EPL_tii2014.Subnet2_Host[9].mac 	rxPausePkUnits:sum 	0
attr interpolationmode  none
attr title  "pause units received, sum"
scalar EPL_tii2014.Subnet2_Host[9].mac 	txPausePkUnits:count 	0
attr interpolationmode  none
attr title  "pause units sent, count"
scalar EPL_tii2014.Subnet2_Host[9].mac 	txPausePkUnits:sum 	0
attr interpolationmode  none
attr title  "pause units sent, sum"
scalar EPL_tii2014.Subnet2_Host[9].mac 	passedUpPk:count 	1334
attr interpolationmode  none
attr source  packetSentToUpper
attr title  "packets passed to higher layer, count"
scalar EPL_tii2014.Subnet2_Host[9].mac 	passedUpPk:sum(packetBytes) 	85376
attr interpolationmode  none
attr source  packetSentToUpper
attr title  "packets passed to higher layer, sum(packetBytes)"
scalar EPL_tii2014.Subnet2_Host[9].mac 	rxPkOk:count 	1334
attr interpolationmode  none
attr source  rxPkOk
attr title  "packets received OK, count"
scalar EPL_tii2014.Subnet2_Host[9].mac 	rxPkOk:sum(packetBytes) 	85376
attr interpolationmode  none
attr source  rxPkOk
attr title  "packets received OK, sum(packetBytes)"
scalar EPL_tii2014.Subnet2_Host[9].mac 	txPk:count 	41
attr interpolationmode  none
attr source  txPk
attr title  "packets transmitted, count"
scalar EPL_tii2014.Subnet2_Host[9].mac 	txPk:sum(packetBytes) 	2624
attr interpolationmode  none
attr source  txPk
attr title  "packets transmitted, sum(packetBytes)"
scalar EPL_tii2014.Subnet2_Host[9].lpi_client 	linkPLPI_time:min 	0.000258
attr source  partial_lpi_time
scalar EPL_tii2014.Subnet2_Host[9].lpi_client 	linkPLPI_time:max 	0.012776119959
attr source  partial_lpi_time
scalar EPL_tii2014.Subnet2_Host[9].lpi_client 	linkPLPI_time:timeavg 	0.0065024965932563
attr source  partial_lpi_time
scalar EPL_tii2014.Subnet2_Host[9].lpi_client 	linkLPI_time:min 	0.010148329997
attr source  lpi_time
scalar EPL_tii2014.Subnet2_Host[9].lpi_client 	linkLPI_time:max 	0.011694680001
attr source  lpi_time
scalar EPL_tii2014.Subnet2_Host[9].lpi_client 	linkLPI_time:timeavg 	0.011656778969893
attr source  lpi_time
scalar EPL_tii2014.Subnet2_Host[9].CN 	sentPk:count 	41
attr interpolationmode  none
attr source  sentPk
attr title  "packets sent, count"
scalar EPL_tii2014.Subnet2_Host[9].CN 	sentPk:sum(packetBytes) 	1845
attr interpolationmode  none
attr source  sentPk
attr title  "packets sent, sum(packetBytes)"
scalar EPL_tii2014.Subnet2_Host[9].CN 	rcvdPk:count 	41
attr interpolationmode  none
attr source  rcvdPk
attr title  "packets received, count"
scalar EPL_tii2014.Subnet2_Host[9].CN 	rcvdPk:sum(packetBytes) 	41
attr interpolationmode  none
attr source  rcvdPk
attr title  "packets received, sum(packetBytes)"
