version 2
run eee2_100M-0-20140320-16:27:59-77077
attr configname eee2_100M
attr datetime 20140320-16:27:59
attr experiment eee2_100M
attr inifile EPL_tii2014.ini
attr iterationvars ""
attr iterationvars2 $repetition=0
attr measurement ""
attr network eeepowerlink.networks.EPL_tii2014
attr processid 77077
attr repetition 0
attr replication #0
attr resultdir results
attr runnumber 0
attr seedset 0

scalar EPL_tii2014.PLC.MN 	sentPk:count 	1470
attr interpolationmode  none
attr source  sentPk
attr title  "packets sent, count"
scalar EPL_tii2014.PLC.MN 	sentPk:sum(packetBytes) 	1428
attr interpolationmode  none
attr source  sentPk
attr title  "packets sent, sum(packetBytes)"
scalar EPL_tii2014.PLC.MN 	rcvdPk:count 	1344
attr interpolationmode  none
attr source  rcvdPk
attr title  "packets received, count"
scalar EPL_tii2014.PLC.MN 	rcvdPk:sum(packetBytes) 	60480
attr interpolationmode  none
attr source  rcvdPk
attr title  "packets received, sum(packetBytes)"
scalar EPL_tii2014.PLC.llc 	pauseSent:count 	0
attr title  "pause sent, count"
scalar EPL_tii2014.PLC.llc 	pauseSent:sum 	0
attr title  "pause sent, sum"
scalar EPL_tii2014.PLC.llc 	decapPk:count 	1344
attr interpolationmode  none
attr source  decapPk
attr title  "packets decapsulated, count"
scalar EPL_tii2014.PLC.llc 	decapPk:sum(packetBytes) 	60480
attr interpolationmode  none
attr source  decapPk
attr title  "packets decapsulated, sum(packetBytes)"
scalar EPL_tii2014.PLC.llc 	encapPk:count 	1512
attr interpolationmode  none
attr source  encapPk
attr title  "packets encapsulated, count"
scalar EPL_tii2014.PLC.llc 	encapPk:sum(packetBytes) 	1470
attr interpolationmode  none
attr source  encapPk
attr title  "packets encapsulated, sum(packetBytes)"
scalar EPL_tii2014.PLC.mac 	"simulated time" 	0.504
scalar EPL_tii2014.PLC.mac 	full-duplex 	1
scalar EPL_tii2014.PLC.mac 	"frames/sec sent" 	3000
scalar EPL_tii2014.PLC.mac 	"frames/sec rcvd" 	2666.6666666667
scalar EPL_tii2014.PLC.mac 	"bits/sec sent" 	1536000
scalar EPL_tii2014.PLC.mac 	"bits/sec rcvd" 	1365333.3333333
scalar EPL_tii2014.PLC.mac 	"rx channel idle (%)" 	98.464
scalar EPL_tii2014.PLC.mac 	"rx channel utilization (%)" 	1.536
scalar EPL_tii2014.PLC.mac 	droppedPkNotForUs:count 	0
attr interpolationmode  none
attr source  dropPkNotForUs
attr title  "packets dropped/not for us, count"
scalar EPL_tii2014.PLC.mac 	droppedPkNotForUs:sum(packetBytes) 	0
attr interpolationmode  none
attr source  dropPkNotForUs
attr title  "packets dropped/not for us, sum(packetBytes)"
scalar EPL_tii2014.PLC.mac 	droppedPkBitError:count 	0
attr interpolationmode  none
attr source  dropPkBitError
attr title  "packets dropped/bit error, count"
scalar EPL_tii2014.PLC.mac 	droppedPkBitError:sum(packetBytes) 	0
attr interpolationmode  none
attr source  dropPkBitError
attr title  "packets dropped/bit error, sum(packetBytes)"
scalar EPL_tii2014.PLC.mac 	droppedPkIfaceDown:count 	0
attr interpolationmode  none
attr source  dropPkIfaceDown
attr title  "packets dropped/interface down, count"
scalar EPL_tii2014.PLC.mac 	droppedPkIfaceDown:sum(packetBytes) 	0
attr interpolationmode  none
attr source  dropPkIfaceDown
attr title  "packets dropped/interface down, sum(packetBytes)"
scalar EPL_tii2014.PLC.mac 	rxPkFromHL:count 	1512
attr interpolationmode  none
attr source  rxPkFromHL
attr title  "packet bytes from higher layer, count"
scalar EPL_tii2014.PLC.mac 	rxPkFromHL:sum(packetBytes) 	96768
attr interpolationmode  none
attr source  rxPkFromHL
attr title  "packet bytes from higher layer, sum(packetBytes)"
scalar EPL_tii2014.PLC.mac 	rxPausePkUnits:count 	0
attr interpolationmode  none
attr title  "pause units received, count"
scalar EPL_tii2014.PLC.mac 	rxPausePkUnits:sum 	0
attr interpolationmode  none
attr title  "pause units received, sum"
scalar EPL_tii2014.PLC.mac 	txPausePkUnits:count 	0
attr interpolationmode  none
attr title  "pause units sent, count"
scalar EPL_tii2014.PLC.mac 	txPausePkUnits:sum 	0
attr interpolationmode  none
attr title  "pause units sent, sum"
scalar EPL_tii2014.PLC.mac 	passedUpPk:count 	1344
attr interpolationmode  none
attr source  packetSentToUpper
attr title  "packets passed to higher layer, count"
scalar EPL_tii2014.PLC.mac 	passedUpPk:sum(packetBytes) 	86016
attr interpolationmode  none
attr source  packetSentToUpper
attr title  "packets passed to higher layer, sum(packetBytes)"
scalar EPL_tii2014.PLC.mac 	rxPkOk:count 	1344
attr interpolationmode  none
attr source  rxPkOk
attr title  "packets received OK, count"
scalar EPL_tii2014.PLC.mac 	rxPkOk:sum(packetBytes) 	86016
attr interpolationmode  none
attr source  rxPkOk
attr title  "packets received OK, sum(packetBytes)"
scalar EPL_tii2014.PLC.mac 	txPk:count 	1512
attr interpolationmode  none
attr source  txPk
attr title  "packets transmitted, count"
scalar EPL_tii2014.PLC.mac 	txPk:sum(packetBytes) 	96768
attr interpolationmode  none
attr source  txPk
attr title  "packets transmitted, sum(packetBytes)"
scalar EPL_tii2014.PLC.lpi_client 	linkPLPI_time:min 	0.003938523864
attr source  partial_lpi_time
scalar EPL_tii2014.PLC.lpi_client 	linkPLPI_time:max 	0.165418002288
attr source  partial_lpi_time
scalar EPL_tii2014.PLC.lpi_client 	linkPLPI_time:timeavg 	0.084042350483579
attr source  partial_lpi_time
scalar EPL_tii2014.PLC.lpi_client 	linkLPI_time:min 	0
attr source  lpi_time
scalar EPL_tii2014.PLC.lpi_client 	linkLPI_time:max 	0.008061476136
attr source  lpi_time
scalar EPL_tii2014.PLC.lpi_client 	linkLPI_time:timeavg 	0.007869536228
attr source  lpi_time
scalar EPL_tii2014.switch0 	"simulated time" 	0.504
scalar EPL_tii2014.switch0 	messages/sec 	5666.6666666667
scalar EPL_tii2014.switch0 	pk:count 	2856
attr interpolationmode  none
attr source  pk
attr title  "packets, count"
scalar EPL_tii2014.switch0 	pk:sum(packetBytes) 	205590
attr interpolationmode  none
attr source  pk
attr title  "packets, sum(packetBytes)"
scalar EPL_tii2014.switch1 	"simulated time" 	0.504
scalar EPL_tii2014.switch1 	messages/sec 	6250
scalar EPL_tii2014.switch1 	pk:count 	3150
attr interpolationmode  none
attr source  pk
attr title  "packets, count"
scalar EPL_tii2014.switch1 	pk:sum(packetBytes) 	226758
attr interpolationmode  none
attr source  pk
attr title  "packets, sum(packetBytes)"
scalar EPL_tii2014.switch2 	"simulated time" 	0.504
scalar EPL_tii2014.switch2 	messages/sec 	4583.3333333333
scalar EPL_tii2014.switch2 	pk:count 	2310
attr interpolationmode  none
attr source  pk
attr title  "packets, count"
scalar EPL_tii2014.switch2 	pk:sum(packetBytes) 	166278
attr interpolationmode  none
attr source  pk
attr title  "packets, sum(packetBytes)"
scalar EPL_tii2014.Subnet1_Host[0].CN 	sentPk:count 	168
attr interpolationmode  none
attr source  sentPk
attr title  "packets sent, count"
scalar EPL_tii2014.Subnet1_Host[0].CN 	sentPk:sum(packetBytes) 	1890
attr interpolationmode  none
attr source  sentPk
attr title  "packets sent, sum(packetBytes)"
scalar EPL_tii2014.Subnet1_Host[0].CN 	rcvdPk:count 	42
attr interpolationmode  none
attr source  rcvdPk
attr title  "packets received, count"
scalar EPL_tii2014.Subnet1_Host[0].CN 	rcvdPk:sum(packetBytes) 	42
attr interpolationmode  none
attr source  rcvdPk
attr title  "packets received, sum(packetBytes)"
scalar EPL_tii2014.Subnet1_Host[0].llc 	pauseSent:count 	0
attr title  "pause sent, count"
scalar EPL_tii2014.Subnet1_Host[0].llc 	pauseSent:sum 	0
attr title  "pause sent, sum"
scalar EPL_tii2014.Subnet1_Host[0].llc 	decapPk:count 	1470
attr interpolationmode  none
attr source  decapPk
attr title  "packets decapsulated, count"
scalar EPL_tii2014.Subnet1_Host[0].llc 	decapPk:sum(packetBytes) 	58758
attr interpolationmode  none
attr source  decapPk
attr title  "packets decapsulated, sum(packetBytes)"
scalar EPL_tii2014.Subnet1_Host[0].llc 	encapPk:count 	84
attr interpolationmode  none
attr source  encapPk
attr title  "packets encapsulated, count"
scalar EPL_tii2014.Subnet1_Host[0].llc 	encapPk:sum(packetBytes) 	1890
attr interpolationmode  none
attr source  encapPk
attr title  "packets encapsulated, sum(packetBytes)"
scalar EPL_tii2014.Subnet1_Host[0].mac 	"simulated time" 	0.504
scalar EPL_tii2014.Subnet1_Host[0].mac 	full-duplex 	1
scalar EPL_tii2014.Subnet1_Host[0].mac 	"frames/sec sent" 	166.66666666667
scalar EPL_tii2014.Subnet1_Host[0].mac 	"frames/sec rcvd" 	2916.6666666667
scalar EPL_tii2014.Subnet1_Host[0].mac 	"bits/sec sent" 	85333.333333333
scalar EPL_tii2014.Subnet1_Host[0].mac 	"bits/sec rcvd" 	1493333.3333333
scalar EPL_tii2014.Subnet1_Host[0].mac 	"rx channel idle (%)" 	98.32
scalar EPL_tii2014.Subnet1_Host[0].mac 	"rx channel utilization (%)" 	1.68
scalar EPL_tii2014.Subnet1_Host[0].mac 	droppedPkNotForUs:count 	0
attr interpolationmode  none
attr source  dropPkNotForUs
attr title  "packets dropped/not for us, count"
scalar EPL_tii2014.Subnet1_Host[0].mac 	droppedPkNotForUs:sum(packetBytes) 	0
attr interpolationmode  none
attr source  dropPkNotForUs
attr title  "packets dropped/not for us, sum(packetBytes)"
scalar EPL_tii2014.Subnet1_Host[0].mac 	droppedPkBitError:count 	0
attr interpolationmode  none
attr source  dropPkBitError
attr title  "packets dropped/bit error, count"
scalar EPL_tii2014.Subnet1_Host[0].mac 	droppedPkBitError:sum(packetBytes) 	0
attr interpolationmode  none
attr source  dropPkBitError
attr title  "packets dropped/bit error, sum(packetBytes)"
scalar EPL_tii2014.Subnet1_Host[0].mac 	droppedPkIfaceDown:count 	0
attr interpolationmode  none
attr source  dropPkIfaceDown
attr title  "packets dropped/interface down, count"
scalar EPL_tii2014.Subnet1_Host[0].mac 	droppedPkIfaceDown:sum(packetBytes) 	0
attr interpolationmode  none
attr source  dropPkIfaceDown
attr title  "packets dropped/interface down, sum(packetBytes)"
scalar EPL_tii2014.Subnet1_Host[0].mac 	rxPkFromHL:count 	84
attr interpolationmode  none
attr source  rxPkFromHL
attr title  "packet bytes from higher layer, count"
scalar EPL_tii2014.Subnet1_Host[0].mac 	rxPkFromHL:sum(packetBytes) 	5376
attr interpolationmode  none
attr source  rxPkFromHL
attr title  "packet bytes from higher layer, sum(packetBytes)"
scalar EPL_tii2014.Subnet1_Host[0].mac 	rxPausePkUnits:count 	0
attr interpolationmode  none
attr title  "pause units received, count"
scalar EPL_tii2014.Subnet1_Host[0].mac 	rxPausePkUnits:sum 	0
attr interpolationmode  none
attr title  "pause units received, sum"
scalar EPL_tii2014.Subnet1_Host[0].mac 	txPausePkUnits:count 	0
attr interpolationmode  none
attr title  "pause units sent, count"
scalar EPL_tii2014.Subnet1_Host[0].mac 	txPausePkUnits:sum 	0
attr interpolationmode  none
attr title  "pause units sent, sum"
scalar EPL_tii2014.Subnet1_Host[0].mac 	passedUpPk:count 	1470
attr interpolationmode  none
attr source  packetSentToUpper
attr title  "packets passed to higher layer, count"
scalar EPL_tii2014.Subnet1_Host[0].mac 	passedUpPk:sum(packetBytes) 	94080
attr interpolationmode  none
attr source  packetSentToUpper
attr title  "packets passed to higher layer, sum(packetBytes)"
scalar EPL_tii2014.Subnet1_Host[0].mac 	rxPkOk:count 	1470
attr interpolationmode  none
attr source  rxPkOk
attr title  "packets received OK, count"
scalar EPL_tii2014.Subnet1_Host[0].mac 	rxPkOk:sum(packetBytes) 	94080
attr interpolationmode  none
attr source  rxPkOk
attr title  "packets received OK, sum(packetBytes)"
scalar EPL_tii2014.Subnet1_Host[0].mac 	txPk:count 	84
attr interpolationmode  none
attr source  txPk
attr title  "packets transmitted, count"
scalar EPL_tii2014.Subnet1_Host[0].mac 	txPk:sum(packetBytes) 	5376
attr interpolationmode  none
attr source  txPk
attr title  "packets transmitted, sum(packetBytes)"
scalar EPL_tii2014.Subnet1_Host[0].lpi_client 	linkPLPI_time:min 	0.003682623865
attr source  partial_lpi_time
scalar EPL_tii2014.Subnet1_Host[0].lpi_client 	linkPLPI_time:max 	0.003682623865
attr source  partial_lpi_time
scalar EPL_tii2014.Subnet1_Host[0].lpi_client 	linkPLPI_time:timeavg 	0.003682623865
attr source  partial_lpi_time
scalar EPL_tii2014.Subnet1_Host[0].lpi_client 	linkLPI_time:min 	0.000143999998
attr source  lpi_time
scalar EPL_tii2014.Subnet1_Host[0].lpi_client 	linkLPI_time:max 	0.008177276136
attr source  lpi_time
scalar EPL_tii2014.Subnet1_Host[0].lpi_client 	linkLPI_time:timeavg 	0.0079859529927694
attr source  lpi_time
scalar EPL_tii2014.Subnet1_Host[1].CN 	sentPk:count 	168
attr interpolationmode  none
attr source  sentPk
attr title  "packets sent, count"
scalar EPL_tii2014.Subnet1_Host[1].CN 	sentPk:sum(packetBytes) 	1890
attr interpolationmode  none
attr source  sentPk
attr title  "packets sent, sum(packetBytes)"
scalar EPL_tii2014.Subnet1_Host[1].CN 	rcvdPk:count 	42
attr interpolationmode  none
attr source  rcvdPk
attr title  "packets received, count"
scalar EPL_tii2014.Subnet1_Host[1].CN 	rcvdPk:sum(packetBytes) 	42
attr interpolationmode  none
attr source  rcvdPk
attr title  "packets received, sum(packetBytes)"
scalar EPL_tii2014.Subnet1_Host[1].llc 	pauseSent:count 	0
attr title  "pause sent, count"
scalar EPL_tii2014.Subnet1_Host[1].llc 	pauseSent:sum 	0
attr title  "pause sent, sum"
scalar EPL_tii2014.Subnet1_Host[1].llc 	decapPk:count 	1470
attr interpolationmode  none
attr source  decapPk
attr title  "packets decapsulated, count"
scalar EPL_tii2014.Subnet1_Host[1].llc 	decapPk:sum(packetBytes) 	58758
attr interpolationmode  none
attr source  decapPk
attr title  "packets decapsulated, sum(packetBytes)"
scalar EPL_tii2014.Subnet1_Host[1].llc 	encapPk:count 	84
attr interpolationmode  none
attr source  encapPk
attr title  "packets encapsulated, count"
scalar EPL_tii2014.Subnet1_Host[1].llc 	encapPk:sum(packetBytes) 	1890
attr interpolationmode  none
attr source  encapPk
attr title  "packets encapsulated, sum(packetBytes)"
scalar EPL_tii2014.Subnet1_Host[1].mac 	"simulated time" 	0.504
scalar EPL_tii2014.Subnet1_Host[1].mac 	full-duplex 	1
scalar EPL_tii2014.Subnet1_Host[1].mac 	"frames/sec sent" 	166.66666666667
scalar EPL_tii2014.Subnet1_Host[1].mac 	"frames/sec rcvd" 	2916.6666666667
scalar EPL_tii2014.Subnet1_Host[1].mac 	"bits/sec sent" 	85333.333333333
scalar EPL_tii2014.Subnet1_Host[1].mac 	"bits/sec rcvd" 	1493333.3333333
scalar EPL_tii2014.Subnet1_Host[1].mac 	"rx channel idle (%)" 	98.32
scalar EPL_tii2014.Subnet1_Host[1].mac 	"rx channel utilization (%)" 	1.68
scalar EPL_tii2014.Subnet1_Host[1].mac 	droppedPkNotForUs:count 	0
attr interpolationmode  none
attr source  dropPkNotForUs
attr title  "packets dropped/not for us, count"
scalar EPL_tii2014.Subnet1_Host[1].mac 	droppedPkNotForUs:sum(packetBytes) 	0
attr interpolationmode  none
attr source  dropPkNotForUs
attr title  "packets dropped/not for us, sum(packetBytes)"
scalar EPL_tii2014.Subnet1_Host[1].mac 	droppedPkBitError:count 	0
attr interpolationmode  none
attr source  dropPkBitError
attr title  "packets dropped/bit error, count"
scalar EPL_tii2014.Subnet1_Host[1].mac 	droppedPkBitError:sum(packetBytes) 	0
attr interpolationmode  none
attr source  dropPkBitError
attr title  "packets dropped/bit error, sum(packetBytes)"
scalar EPL_tii2014.Subnet1_Host[1].mac 	droppedPkIfaceDown:count 	0
attr interpolationmode  none
attr source  dropPkIfaceDown
attr title  "packets dropped/interface down, count"
scalar EPL_tii2014.Subnet1_Host[1].mac 	droppedPkIfaceDown:sum(packetBytes) 	0
attr interpolationmode  none
attr source  dropPkIfaceDown
attr title  "packets dropped/interface down, sum(packetBytes)"
scalar EPL_tii2014.Subnet1_Host[1].mac 	rxPkFromHL:count 	84
attr interpolationmode  none
attr source  rxPkFromHL
attr title  "packet bytes from higher layer, count"
scalar EPL_tii2014.Subnet1_Host[1].mac 	rxPkFromHL:sum(packetBytes) 	5376
attr interpolationmode  none
attr source  rxPkFromHL
attr title  "packet bytes from higher layer, sum(packetBytes)"
scalar EPL_tii2014.Subnet1_Host[1].mac 	rxPausePkUnits:count 	0
attr interpolationmode  none
attr title  "pause units received, count"
scalar EPL_tii2014.Subnet1_Host[1].mac 	rxPausePkUnits:sum 	0
attr interpolationmode  none
attr title  "pause units received, sum"
scalar EPL_tii2014.Subnet1_Host[1].mac 	txPausePkUnits:count 	0
attr interpolationmode  none
attr title  "pause units sent, count"
scalar EPL_tii2014.Subnet1_Host[1].mac 	txPausePkUnits:sum 	0
attr interpolationmode  none
attr title  "pause units sent, sum"
scalar EPL_tii2014.Subnet1_Host[1].mac 	passedUpPk:count 	1470
attr interpolationmode  none
attr source  packetSentToUpper
attr title  "packets passed to higher layer, count"
scalar EPL_tii2014.Subnet1_Host[1].mac 	passedUpPk:sum(packetBytes) 	94080
attr interpolationmode  none
attr source  packetSentToUpper
attr title  "packets passed to higher layer, sum(packetBytes)"
scalar EPL_tii2014.Subnet1_Host[1].mac 	rxPkOk:count 	1470
attr interpolationmode  none
attr source  rxPkOk
attr title  "packets received OK, count"
scalar EPL_tii2014.Subnet1_Host[1].mac 	rxPkOk:sum(packetBytes) 	94080
attr interpolationmode  none
attr source  rxPkOk
attr title  "packets received OK, sum(packetBytes)"
scalar EPL_tii2014.Subnet1_Host[1].mac 	txPk:count 	84
attr interpolationmode  none
attr source  txPk
attr title  "packets transmitted, count"
scalar EPL_tii2014.Subnet1_Host[1].mac 	txPk:sum(packetBytes) 	5376
attr interpolationmode  none
attr source  txPk
attr title  "packets transmitted, sum(packetBytes)"
scalar EPL_tii2014.Subnet1_Host[1].lpi_client 	linkPLPI_time:min 	0.003682623865
attr source  partial_lpi_time
scalar EPL_tii2014.Subnet1_Host[1].lpi_client 	linkPLPI_time:max 	0.003682623865
attr source  partial_lpi_time
scalar EPL_tii2014.Subnet1_Host[1].lpi_client 	linkPLPI_time:timeavg 	0.003682623865
attr source  partial_lpi_time
scalar EPL_tii2014.Subnet1_Host[1].lpi_client 	linkLPI_time:min 	0.000143999998
attr source  lpi_time
scalar EPL_tii2014.Subnet1_Host[1].lpi_client 	linkLPI_time:max 	0.008177276136
attr source  lpi_time
scalar EPL_tii2014.Subnet1_Host[1].lpi_client 	linkLPI_time:timeavg 	0.0079859529927694
attr source  lpi_time
scalar EPL_tii2014.Subnet1_Host[2].CN 	sentPk:count 	168
attr interpolationmode  none
attr source  sentPk
attr title  "packets sent, count"
scalar EPL_tii2014.Subnet1_Host[2].CN 	sentPk:sum(packetBytes) 	1890
attr interpolationmode  none
attr source  sentPk
attr title  "packets sent, sum(packetBytes)"
scalar EPL_tii2014.Subnet1_Host[2].CN 	rcvdPk:count 	42
attr interpolationmode  none
attr source  rcvdPk
attr title  "packets received, count"
scalar EPL_tii2014.Subnet1_Host[2].CN 	rcvdPk:sum(packetBytes) 	42
attr interpolationmode  none
attr source  rcvdPk
attr title  "packets received, sum(packetBytes)"
scalar EPL_tii2014.Subnet1_Host[2].llc 	pauseSent:count 	0
attr title  "pause sent, count"
scalar EPL_tii2014.Subnet1_Host[2].llc 	pauseSent:sum 	0
attr title  "pause sent, sum"
scalar EPL_tii2014.Subnet1_Host[2].llc 	decapPk:count 	1470
attr interpolationmode  none
attr source  decapPk
attr title  "packets decapsulated, count"
scalar EPL_tii2014.Subnet1_Host[2].llc 	decapPk:sum(packetBytes) 	58758
attr interpolationmode  none
attr source  decapPk
attr title  "packets decapsulated, sum(packetBytes)"
scalar EPL_tii2014.Subnet1_Host[2].llc 	encapPk:count 	84
attr interpolationmode  none
attr source  encapPk
attr title  "packets encapsulated, count"
scalar EPL_tii2014.Subnet1_Host[2].llc 	encapPk:sum(packetBytes) 	1890
attr interpolationmode  none
attr source  encapPk
attr title  "packets encapsulated, sum(packetBytes)"
scalar EPL_tii2014.Subnet1_Host[2].mac 	"simulated time" 	0.504
scalar EPL_tii2014.Subnet1_Host[2].mac 	full-duplex 	1
scalar EPL_tii2014.Subnet1_Host[2].mac 	"frames/sec sent" 	166.66666666667
scalar EPL_tii2014.Subnet1_Host[2].mac 	"frames/sec rcvd" 	2916.6666666667
scalar EPL_tii2014.Subnet1_Host[2].mac 	"bits/sec sent" 	85333.333333333
scalar EPL_tii2014.Subnet1_Host[2].mac 	"bits/sec rcvd" 	1493333.3333333
scalar EPL_tii2014.Subnet1_Host[2].mac 	"rx channel idle (%)" 	98.32
scalar EPL_tii2014.Subnet1_Host[2].mac 	"rx channel utilization (%)" 	1.68
scalar EPL_tii2014.Subnet1_Host[2].mac 	droppedPkNotForUs:count 	0
attr interpolationmode  none
attr source  dropPkNotForUs
attr title  "packets dropped/not for us, count"
scalar EPL_tii2014.Subnet1_Host[2].mac 	droppedPkNotForUs:sum(packetBytes) 	0
attr interpolationmode  none
attr source  dropPkNotForUs
attr title  "packets dropped/not for us, sum(packetBytes)"
scalar EPL_tii2014.Subnet1_Host[2].mac 	droppedPkBitError:count 	0
attr interpolationmode  none
attr source  dropPkBitError
attr title  "packets dropped/bit error, count"
scalar EPL_tii2014.Subnet1_Host[2].mac 	droppedPkBitError:sum(packetBytes) 	0
attr interpolationmode  none
attr source  dropPkBitError
attr title  "packets dropped/bit error, sum(packetBytes)"
scalar EPL_tii2014.Subnet1_Host[2].mac 	droppedPkIfaceDown:count 	0
attr interpolationmode  none
attr source  dropPkIfaceDown
attr title  "packets dropped/interface down, count"
scalar EPL_tii2014.Subnet1_Host[2].mac 	droppedPkIfaceDown:sum(packetBytes) 	0
attr interpolationmode  none
attr source  dropPkIfaceDown
attr title  "packets dropped/interface down, sum(packetBytes)"
scalar EPL_tii2014.Subnet1_Host[2].mac 	rxPkFromHL:count 	84
attr interpolationmode  none
attr source  rxPkFromHL
attr title  "packet bytes from higher layer, count"
scalar EPL_tii2014.Subnet1_Host[2].mac 	rxPkFromHL:sum(packetBytes) 	5376
attr interpolationmode  none
attr source  rxPkFromHL
attr title  "packet bytes from higher layer, sum(packetBytes)"
scalar EPL_tii2014.Subnet1_Host[2].mac 	rxPausePkUnits:count 	0
attr interpolationmode  none
attr title  "pause units received, count"
scalar EPL_tii2014.Subnet1_Host[2].mac 	rxPausePkUnits:sum 	0
attr interpolationmode  none
attr title  "pause units received, sum"
scalar EPL_tii2014.Subnet1_Host[2].mac 	txPausePkUnits:count 	0
attr interpolationmode  none
attr title  "pause units sent, count"
scalar EPL_tii2014.Subnet1_Host[2].mac 	txPausePkUnits:sum 	0
attr interpolationmode  none
attr title  "pause units sent, sum"
scalar EPL_tii2014.Subnet1_Host[2].mac 	passedUpPk:count 	1470
attr interpolationmode  none
attr source  packetSentToUpper
attr title  "packets passed to higher layer, count"
scalar EPL_tii2014.Subnet1_Host[2].mac 	passedUpPk:sum(packetBytes) 	94080
attr interpolationmode  none
attr source  packetSentToUpper
attr title  "packets passed to higher layer, sum(packetBytes)"
scalar EPL_tii2014.Subnet1_Host[2].mac 	rxPkOk:count 	1470
attr interpolationmode  none
attr source  rxPkOk
attr title  "packets received OK, count"
scalar EPL_tii2014.Subnet1_Host[2].mac 	rxPkOk:sum(packetBytes) 	94080
attr interpolationmode  none
attr source  rxPkOk
attr title  "packets received OK, sum(packetBytes)"
scalar EPL_tii2014.Subnet1_Host[2].mac 	txPk:count 	84
attr interpolationmode  none
attr source  txPk
attr title  "packets transmitted, count"
scalar EPL_tii2014.Subnet1_Host[2].mac 	txPk:sum(packetBytes) 	5376
attr interpolationmode  none
attr source  txPk
attr title  "packets transmitted, sum(packetBytes)"
scalar EPL_tii2014.Subnet1_Host[2].lpi_client 	linkPLPI_time:min 	0.003682623865
attr source  partial_lpi_time
scalar EPL_tii2014.Subnet1_Host[2].lpi_client 	linkPLPI_time:max 	0.003682623865
attr source  partial_lpi_time
scalar EPL_tii2014.Subnet1_Host[2].lpi_client 	linkPLPI_time:timeavg 	0.003682623865
attr source  partial_lpi_time
scalar EPL_tii2014.Subnet1_Host[2].lpi_client 	linkLPI_time:min 	0.000143999998
attr source  lpi_time
scalar EPL_tii2014.Subnet1_Host[2].lpi_client 	linkLPI_time:max 	0.008177276136
attr source  lpi_time
scalar EPL_tii2014.Subnet1_Host[2].lpi_client 	linkLPI_time:timeavg 	0.0079859529927694
attr source  lpi_time
scalar EPL_tii2014.Subnet1_Host[3].CN 	sentPk:count 	168
attr interpolationmode  none
attr source  sentPk
attr title  "packets sent, count"
scalar EPL_tii2014.Subnet1_Host[3].CN 	sentPk:sum(packetBytes) 	1890
attr interpolationmode  none
attr source  sentPk
attr title  "packets sent, sum(packetBytes)"
scalar EPL_tii2014.Subnet1_Host[3].CN 	rcvdPk:count 	42
attr interpolationmode  none
attr source  rcvdPk
attr title  "packets received, count"
scalar EPL_tii2014.Subnet1_Host[3].CN 	rcvdPk:sum(packetBytes) 	42
attr interpolationmode  none
attr source  rcvdPk
attr title  "packets received, sum(packetBytes)"
scalar EPL_tii2014.Subnet1_Host[3].llc 	pauseSent:count 	0
attr title  "pause sent, count"
scalar EPL_tii2014.Subnet1_Host[3].llc 	pauseSent:sum 	0
attr title  "pause sent, sum"
scalar EPL_tii2014.Subnet1_Host[3].llc 	decapPk:count 	1470
attr interpolationmode  none
attr source  decapPk
attr title  "packets decapsulated, count"
scalar EPL_tii2014.Subnet1_Host[3].llc 	decapPk:sum(packetBytes) 	58758
attr interpolationmode  none
attr source  decapPk
attr title  "packets decapsulated, sum(packetBytes)"
scalar EPL_tii2014.Subnet1_Host[3].llc 	encapPk:count 	84
attr interpolationmode  none
attr source  encapPk
attr title  "packets encapsulated, count"
scalar EPL_tii2014.Subnet1_Host[3].llc 	encapPk:sum(packetBytes) 	1890
attr interpolationmode  none
attr source  encapPk
attr title  "packets encapsulated, sum(packetBytes)"
scalar EPL_tii2014.Subnet1_Host[3].mac 	"simulated time" 	0.504
scalar EPL_tii2014.Subnet1_Host[3].mac 	full-duplex 	1
scalar EPL_tii2014.Subnet1_Host[3].mac 	"frames/sec sent" 	166.66666666667
scalar EPL_tii2014.Subnet1_Host[3].mac 	"frames/sec rcvd" 	2916.6666666667
scalar EPL_tii2014.Subnet1_Host[3].mac 	"bits/sec sent" 	85333.333333333
scalar EPL_tii2014.Subnet1_Host[3].mac 	"bits/sec rcvd" 	1493333.3333333
scalar EPL_tii2014.Subnet1_Host[3].mac 	"rx channel idle (%)" 	98.32
scalar EPL_tii2014.Subnet1_Host[3].mac 	"rx channel utilization (%)" 	1.68
scalar EPL_tii2014.Subnet1_Host[3].mac 	droppedPkNotForUs:count 	0
attr interpolationmode  none
attr source  dropPkNotForUs
attr title  "packets dropped/not for us, count"
scalar EPL_tii2014.Subnet1_Host[3].mac 	droppedPkNotForUs:sum(packetBytes) 	0
attr interpolationmode  none
attr source  dropPkNotForUs
attr title  "packets dropped/not for us, sum(packetBytes)"
scalar EPL_tii2014.Subnet1_Host[3].mac 	droppedPkBitError:count 	0
attr interpolationmode  none
attr source  dropPkBitError
attr title  "packets dropped/bit error, count"
scalar EPL_tii2014.Subnet1_Host[3].mac 	droppedPkBitError:sum(packetBytes) 	0
attr interpolationmode  none
attr source  dropPkBitError
attr title  "packets dropped/bit error, sum(packetBytes)"
scalar EPL_tii2014.Subnet1_Host[3].mac 	droppedPkIfaceDown:count 	0
attr interpolationmode  none
attr source  dropPkIfaceDown
attr title  "packets dropped/interface down, count"
scalar EPL_tii2014.Subnet1_Host[3].mac 	droppedPkIfaceDown:sum(packetBytes) 	0
attr interpolationmode  none
attr source  dropPkIfaceDown
attr title  "packets dropped/interface down, sum(packetBytes)"
scalar EPL_tii2014.Subnet1_Host[3].mac 	rxPkFromHL:count 	84
attr interpolationmode  none
attr source  rxPkFromHL
attr title  "packet bytes from higher layer, count"
scalar EPL_tii2014.Subnet1_Host[3].mac 	rxPkFromHL:sum(packetBytes) 	5376
attr interpolationmode  none
attr source  rxPkFromHL
attr title  "packet bytes from higher layer, sum(packetBytes)"
scalar EPL_tii2014.Subnet1_Host[3].mac 	rxPausePkUnits:count 	0
attr interpolationmode  none
attr title  "pause units received, count"
scalar EPL_tii2014.Subnet1_Host[3].mac 	rxPausePkUnits:sum 	0
attr interpolationmode  none
attr title  "pause units received, sum"
scalar EPL_tii2014.Subnet1_Host[3].mac 	txPausePkUnits:count 	0
attr interpolationmode  none
attr title  "pause units sent, count"
scalar EPL_tii2014.Subnet1_Host[3].mac 	txPausePkUnits:sum 	0
attr interpolationmode  none
attr title  "pause units sent, sum"
scalar EPL_tii2014.Subnet1_Host[3].mac 	passedUpPk:count 	1470
attr interpolationmode  none
attr source  packetSentToUpper
attr title  "packets passed to higher layer, count"
scalar EPL_tii2014.Subnet1_Host[3].mac 	passedUpPk:sum(packetBytes) 	94080
attr interpolationmode  none
attr source  packetSentToUpper
attr title  "packets passed to higher layer, sum(packetBytes)"
scalar EPL_tii2014.Subnet1_Host[3].mac 	rxPkOk:count 	1470
attr interpolationmode  none
attr source  rxPkOk
attr title  "packets received OK, count"
scalar EPL_tii2014.Subnet1_Host[3].mac 	rxPkOk:sum(packetBytes) 	94080
attr interpolationmode  none
attr source  rxPkOk
attr title  "packets received OK, sum(packetBytes)"
scalar EPL_tii2014.Subnet1_Host[3].mac 	txPk:count 	84
attr interpolationmode  none
attr source  txPk
attr title  "packets transmitted, count"
scalar EPL_tii2014.Subnet1_Host[3].mac 	txPk:sum(packetBytes) 	5376
attr interpolationmode  none
attr source  txPk
attr title  "packets transmitted, sum(packetBytes)"
scalar EPL_tii2014.Subnet1_Host[3].lpi_client 	linkPLPI_time:min 	0.003682623865
attr source  partial_lpi_time
scalar EPL_tii2014.Subnet1_Host[3].lpi_client 	linkPLPI_time:max 	0.003682623865
attr source  partial_lpi_time
scalar EPL_tii2014.Subnet1_Host[3].lpi_client 	linkPLPI_time:timeavg 	0.003682623865
attr source  partial_lpi_time
scalar EPL_tii2014.Subnet1_Host[3].lpi_client 	linkLPI_time:min 	0.000143999998
attr source  lpi_time
scalar EPL_tii2014.Subnet1_Host[3].lpi_client 	linkLPI_time:max 	0.008177276136
attr source  lpi_time
scalar EPL_tii2014.Subnet1_Host[3].lpi_client 	linkLPI_time:timeavg 	0.0079859529927694
attr source  lpi_time
scalar EPL_tii2014.Subnet1_Host[4].CN 	sentPk:count 	168
attr interpolationmode  none
attr source  sentPk
attr title  "packets sent, count"
scalar EPL_tii2014.Subnet1_Host[4].CN 	sentPk:sum(packetBytes) 	1890
attr interpolationmode  none
attr source  sentPk
attr title  "packets sent, sum(packetBytes)"
scalar EPL_tii2014.Subnet1_Host[4].CN 	rcvdPk:count 	42
attr interpolationmode  none
attr source  rcvdPk
attr title  "packets received, count"
scalar EPL_tii2014.Subnet1_Host[4].CN 	rcvdPk:sum(packetBytes) 	42
attr interpolationmode  none
attr source  rcvdPk
attr title  "packets received, sum(packetBytes)"
scalar EPL_tii2014.Subnet1_Host[4].llc 	pauseSent:count 	0
attr title  "pause sent, count"
scalar EPL_tii2014.Subnet1_Host[4].llc 	pauseSent:sum 	0
attr title  "pause sent, sum"
scalar EPL_tii2014.Subnet1_Host[4].llc 	decapPk:count 	1470
attr interpolationmode  none
attr source  decapPk
attr title  "packets decapsulated, count"
scalar EPL_tii2014.Subnet1_Host[4].llc 	decapPk:sum(packetBytes) 	58758
attr interpolationmode  none
attr source  decapPk
attr title  "packets decapsulated, sum(packetBytes)"
scalar EPL_tii2014.Subnet1_Host[4].llc 	encapPk:count 	84
attr interpolationmode  none
attr source  encapPk
attr title  "packets encapsulated, count"
scalar EPL_tii2014.Subnet1_Host[4].llc 	encapPk:sum(packetBytes) 	1890
attr interpolationmode  none
attr source  encapPk
attr title  "packets encapsulated, sum(packetBytes)"
scalar EPL_tii2014.Subnet1_Host[4].mac 	"simulated time" 	0.504
scalar EPL_tii2014.Subnet1_Host[4].mac 	full-duplex 	1
scalar EPL_tii2014.Subnet1_Host[4].mac 	"frames/sec sent" 	166.66666666667
scalar EPL_tii2014.Subnet1_Host[4].mac 	"frames/sec rcvd" 	2916.6666666667
scalar EPL_tii2014.Subnet1_Host[4].mac 	"bits/sec sent" 	85333.333333333
scalar EPL_tii2014.Subnet1_Host[4].mac 	"bits/sec rcvd" 	1493333.3333333
scalar EPL_tii2014.Subnet1_Host[4].mac 	"rx channel idle (%)" 	98.32
scalar EPL_tii2014.Subnet1_Host[4].mac 	"rx channel utilization (%)" 	1.68
scalar EPL_tii2014.Subnet1_Host[4].mac 	droppedPkNotForUs:count 	0
attr interpolationmode  none
attr source  dropPkNotForUs
attr title  "packets dropped/not for us, count"
scalar EPL_tii2014.Subnet1_Host[4].mac 	droppedPkNotForUs:sum(packetBytes) 	0
attr interpolationmode  none
attr source  dropPkNotForUs
attr title  "packets dropped/not for us, sum(packetBytes)"
scalar EPL_tii2014.Subnet1_Host[4].mac 	droppedPkBitError:count 	0
attr interpolationmode  none
attr source  dropPkBitError
attr title  "packets dropped/bit error, count"
scalar EPL_tii2014.Subnet1_Host[4].mac 	droppedPkBitError:sum(packetBytes) 	0
attr interpolationmode  none
attr source  dropPkBitError
attr title  "packets dropped/bit error, sum(packetBytes)"
scalar EPL_tii2014.Subnet1_Host[4].mac 	droppedPkIfaceDown:count 	0
attr interpolationmode  none
attr source  dropPkIfaceDown
attr title  "packets dropped/interface down, count"
scalar EPL_tii2014.Subnet1_Host[4].mac 	droppedPkIfaceDown:sum(packetBytes) 	0
attr interpolationmode  none
attr source  dropPkIfaceDown
attr title  "packets dropped/interface down, sum(packetBytes)"
scalar EPL_tii2014.Subnet1_Host[4].mac 	rxPkFromHL:count 	84
attr interpolationmode  none
attr source  rxPkFromHL
attr title  "packet bytes from higher layer, count"
scalar EPL_tii2014.Subnet1_Host[4].mac 	rxPkFromHL:sum(packetBytes) 	5376
attr interpolationmode  none
attr source  rxPkFromHL
attr title  "packet bytes from higher layer, sum(packetBytes)"
scalar EPL_tii2014.Subnet1_Host[4].mac 	rxPausePkUnits:count 	0
attr interpolationmode  none
attr title  "pause units received, count"
scalar EPL_tii2014.Subnet1_Host[4].mac 	rxPausePkUnits:sum 	0
attr interpolationmode  none
attr title  "pause units received, sum"
scalar EPL_tii2014.Subnet1_Host[4].mac 	txPausePkUnits:count 	0
attr interpolationmode  none
attr title  "pause units sent, count"
scalar EPL_tii2014.Subnet1_Host[4].mac 	txPausePkUnits:sum 	0
attr interpolationmode  none
attr title  "pause units sent, sum"
scalar EPL_tii2014.Subnet1_Host[4].mac 	passedUpPk:count 	1470
attr interpolationmode  none
attr source  packetSentToUpper
attr title  "packets passed to higher layer, count"
scalar EPL_tii2014.Subnet1_Host[4].mac 	passedUpPk:sum(packetBytes) 	94080
attr interpolationmode  none
attr source  packetSentToUpper
attr title  "packets passed to higher layer, sum(packetBytes)"
scalar EPL_tii2014.Subnet1_Host[4].mac 	rxPkOk:count 	1470
attr interpolationmode  none
attr source  rxPkOk
attr title  "packets received OK, count"
scalar EPL_tii2014.Subnet1_Host[4].mac 	rxPkOk:sum(packetBytes) 	94080
attr interpolationmode  none
attr source  rxPkOk
attr title  "packets received OK, sum(packetBytes)"
scalar EPL_tii2014.Subnet1_Host[4].mac 	txPk:count 	84
attr interpolationmode  none
attr source  txPk
attr title  "packets transmitted, count"
scalar EPL_tii2014.Subnet1_Host[4].mac 	txPk:sum(packetBytes) 	5376
attr interpolationmode  none
attr source  txPk
attr title  "packets transmitted, sum(packetBytes)"
scalar EPL_tii2014.Subnet1_Host[4].lpi_client 	linkPLPI_time:min 	0.003682623865
attr source  partial_lpi_time
scalar EPL_tii2014.Subnet1_Host[4].lpi_client 	linkPLPI_time:max 	0.003682623865
attr source  partial_lpi_time
scalar EPL_tii2014.Subnet1_Host[4].lpi_client 	linkPLPI_time:timeavg 	0.003682623865
attr source  partial_lpi_time
scalar EPL_tii2014.Subnet1_Host[4].lpi_client 	linkLPI_time:min 	0.000143999998
attr source  lpi_time
scalar EPL_tii2014.Subnet1_Host[4].lpi_client 	linkLPI_time:max 	0.008177276136
attr source  lpi_time
scalar EPL_tii2014.Subnet1_Host[4].lpi_client 	linkLPI_time:timeavg 	0.0079859529927694
attr source  lpi_time
scalar EPL_tii2014.Subnet1_Host[5].CN 	sentPk:count 	168
attr interpolationmode  none
attr source  sentPk
attr title  "packets sent, count"
scalar EPL_tii2014.Subnet1_Host[5].CN 	sentPk:sum(packetBytes) 	1890
attr interpolationmode  none
attr source  sentPk
attr title  "packets sent, sum(packetBytes)"
scalar EPL_tii2014.Subnet1_Host[5].CN 	rcvdPk:count 	42
attr interpolationmode  none
attr source  rcvdPk
attr title  "packets received, count"
scalar EPL_tii2014.Subnet1_Host[5].CN 	rcvdPk:sum(packetBytes) 	42
attr interpolationmode  none
attr source  rcvdPk
attr title  "packets received, sum(packetBytes)"
scalar EPL_tii2014.Subnet1_Host[5].llc 	pauseSent:count 	0
attr title  "pause sent, count"
scalar EPL_tii2014.Subnet1_Host[5].llc 	pauseSent:sum 	0
attr title  "pause sent, sum"
scalar EPL_tii2014.Subnet1_Host[5].llc 	decapPk:count 	1470
attr interpolationmode  none
attr source  decapPk
attr title  "packets decapsulated, count"
scalar EPL_tii2014.Subnet1_Host[5].llc 	decapPk:sum(packetBytes) 	58758
attr interpolationmode  none
attr source  decapPk
attr title  "packets decapsulated, sum(packetBytes)"
scalar EPL_tii2014.Subnet1_Host[5].llc 	encapPk:count 	84
attr interpolationmode  none
attr source  encapPk
attr title  "packets encapsulated, count"
scalar EPL_tii2014.Subnet1_Host[5].llc 	encapPk:sum(packetBytes) 	1890
attr interpolationmode  none
attr source  encapPk
attr title  "packets encapsulated, sum(packetBytes)"
scalar EPL_tii2014.Subnet1_Host[5].mac 	"simulated time" 	0.504
scalar EPL_tii2014.Subnet1_Host[5].mac 	full-duplex 	1
scalar EPL_tii2014.Subnet1_Host[5].mac 	"frames/sec sent" 	166.66666666667
scalar EPL_tii2014.Subnet1_Host[5].mac 	"frames/sec rcvd" 	2916.6666666667
scalar EPL_tii2014.Subnet1_Host[5].mac 	"bits/sec sent" 	85333.333333333
scalar EPL_tii2014.Subnet1_Host[5].mac 	"bits/sec rcvd" 	1493333.3333333
scalar EPL_tii2014.Subnet1_Host[5].mac 	"rx channel idle (%)" 	98.32
scalar EPL_tii2014.Subnet1_Host[5].mac 	"rx channel utilization (%)" 	1.68
scalar EPL_tii2014.Subnet1_Host[5].mac 	droppedPkNotForUs:count 	0
attr interpolationmode  none
attr source  dropPkNotForUs
attr title  "packets dropped/not for us, count"
scalar EPL_tii2014.Subnet1_Host[5].mac 	droppedPkNotForUs:sum(packetBytes) 	0
attr interpolationmode  none
attr source  dropPkNotForUs
attr title  "packets dropped/not for us, sum(packetBytes)"
scalar EPL_tii2014.Subnet1_Host[5].mac 	droppedPkBitError:count 	0
attr interpolationmode  none
attr source  dropPkBitError
attr title  "packets dropped/bit error, count"
scalar EPL_tii2014.Subnet1_Host[5].mac 	droppedPkBitError:sum(packetBytes) 	0
attr interpolationmode  none
attr source  dropPkBitError
attr title  "packets dropped/bit error, sum(packetBytes)"
scalar EPL_tii2014.Subnet1_Host[5].mac 	droppedPkIfaceDown:count 	0
attr interpolationmode  none
attr source  dropPkIfaceDown
attr title  "packets dropped/interface down, count"
scalar EPL_tii2014.Subnet1_Host[5].mac 	droppedPkIfaceDown:sum(packetBytes) 	0
attr interpolationmode  none
attr source  dropPkIfaceDown
attr title  "packets dropped/interface down, sum(packetBytes)"
scalar EPL_tii2014.Subnet1_Host[5].mac 	rxPkFromHL:count 	84
attr interpolationmode  none
attr source  rxPkFromHL
attr title  "packet bytes from higher layer, count"
scalar EPL_tii2014.Subnet1_Host[5].mac 	rxPkFromHL:sum(packetBytes) 	5376
attr interpolationmode  none
attr source  rxPkFromHL
attr title  "packet bytes from higher layer, sum(packetBytes)"
scalar EPL_tii2014.Subnet1_Host[5].mac 	rxPausePkUnits:count 	0
attr interpolationmode  none
attr title  "pause units received, count"
scalar EPL_tii2014.Subnet1_Host[5].mac 	rxPausePkUnits:sum 	0
attr interpolationmode  none
attr title  "pause units received, sum"
scalar EPL_tii2014.Subnet1_Host[5].mac 	txPausePkUnits:count 	0
attr interpolationmode  none
attr title  "pause units sent, count"
scalar EPL_tii2014.Subnet1_Host[5].mac 	txPausePkUnits:sum 	0
attr interpolationmode  none
attr title  "pause units sent, sum"
scalar EPL_tii2014.Subnet1_Host[5].mac 	passedUpPk:count 	1470
attr interpolationmode  none
attr source  packetSentToUpper
attr title  "packets passed to higher layer, count"
scalar EPL_tii2014.Subnet1_Host[5].mac 	passedUpPk:sum(packetBytes) 	94080
attr interpolationmode  none
attr source  packetSentToUpper
attr title  "packets passed to higher layer, sum(packetBytes)"
scalar EPL_tii2014.Subnet1_Host[5].mac 	rxPkOk:count 	1470
attr interpolationmode  none
attr source  rxPkOk
attr title  "packets received OK, count"
scalar EPL_tii2014.Subnet1_Host[5].mac 	rxPkOk:sum(packetBytes) 	94080
attr interpolationmode  none
attr source  rxPkOk
attr title  "packets received OK, sum(packetBytes)"
scalar EPL_tii2014.Subnet1_Host[5].mac 	txPk:count 	84
attr interpolationmode  none
attr source  txPk
attr title  "packets transmitted, count"
scalar EPL_tii2014.Subnet1_Host[5].mac 	txPk:sum(packetBytes) 	5376
attr interpolationmode  none
attr source  txPk
attr title  "packets transmitted, sum(packetBytes)"
scalar EPL_tii2014.Subnet1_Host[5].lpi_client 	linkPLPI_time:min 	0.003682623865
attr source  partial_lpi_time
scalar EPL_tii2014.Subnet1_Host[5].lpi_client 	linkPLPI_time:max 	0.003682623865
attr source  partial_lpi_time
scalar EPL_tii2014.Subnet1_Host[5].lpi_client 	linkPLPI_time:timeavg 	0.003682623865
attr source  partial_lpi_time
scalar EPL_tii2014.Subnet1_Host[5].lpi_client 	linkLPI_time:min 	0.000143999998
attr source  lpi_time
scalar EPL_tii2014.Subnet1_Host[5].lpi_client 	linkLPI_time:max 	0.008177276136
attr source  lpi_time
scalar EPL_tii2014.Subnet1_Host[5].lpi_client 	linkLPI_time:timeavg 	0.0079859529927694
attr source  lpi_time
scalar EPL_tii2014.Subnet1_Host[6].CN 	sentPk:count 	168
attr interpolationmode  none
attr source  sentPk
attr title  "packets sent, count"
scalar EPL_tii2014.Subnet1_Host[6].CN 	sentPk:sum(packetBytes) 	1890
attr interpolationmode  none
attr source  sentPk
attr title  "packets sent, sum(packetBytes)"
scalar EPL_tii2014.Subnet1_Host[6].CN 	rcvdPk:count 	42
attr interpolationmode  none
attr source  rcvdPk
attr title  "packets received, count"
scalar EPL_tii2014.Subnet1_Host[6].CN 	rcvdPk:sum(packetBytes) 	42
attr interpolationmode  none
attr source  rcvdPk
attr title  "packets received, sum(packetBytes)"
scalar EPL_tii2014.Subnet1_Host[6].llc 	pauseSent:count 	0
attr title  "pause sent, count"
scalar EPL_tii2014.Subnet1_Host[6].llc 	pauseSent:sum 	0
attr title  "pause sent, sum"
scalar EPL_tii2014.Subnet1_Host[6].llc 	decapPk:count 	1470
attr interpolationmode  none
attr source  decapPk
attr title  "packets decapsulated, count"
scalar EPL_tii2014.Subnet1_Host[6].llc 	decapPk:sum(packetBytes) 	58758
attr interpolationmode  none
attr source  decapPk
attr title  "packets decapsulated, sum(packetBytes)"
scalar EPL_tii2014.Subnet1_Host[6].llc 	encapPk:count 	84
attr interpolationmode  none
attr source  encapPk
attr title  "packets encapsulated, count"
scalar EPL_tii2014.Subnet1_Host[6].llc 	encapPk:sum(packetBytes) 	1890
attr interpolationmode  none
attr source  encapPk
attr title  "packets encapsulated, sum(packetBytes)"
scalar EPL_tii2014.Subnet1_Host[6].mac 	"simulated time" 	0.504
scalar EPL_tii2014.Subnet1_Host[6].mac 	full-duplex 	1
scalar EPL_tii2014.Subnet1_Host[6].mac 	"frames/sec sent" 	166.66666666667
scalar EPL_tii2014.Subnet1_Host[6].mac 	"frames/sec rcvd" 	2916.6666666667
scalar EPL_tii2014.Subnet1_Host[6].mac 	"bits/sec sent" 	85333.333333333
scalar EPL_tii2014.Subnet1_Host[6].mac 	"bits/sec rcvd" 	1493333.3333333
scalar EPL_tii2014.Subnet1_Host[6].mac 	"rx channel idle (%)" 	98.32
scalar EPL_tii2014.Subnet1_Host[6].mac 	"rx channel utilization (%)" 	1.68
scalar EPL_tii2014.Subnet1_Host[6].mac 	droppedPkNotForUs:count 	0
attr interpolationmode  none
attr source  dropPkNotForUs
attr title  "packets dropped/not for us, count"
scalar EPL_tii2014.Subnet1_Host[6].mac 	droppedPkNotForUs:sum(packetBytes) 	0
attr interpolationmode  none
attr source  dropPkNotForUs
attr title  "packets dropped/not for us, sum(packetBytes)"
scalar EPL_tii2014.Subnet1_Host[6].mac 	droppedPkBitError:count 	0
attr interpolationmode  none
attr source  dropPkBitError
attr title  "packets dropped/bit error, count"
scalar EPL_tii2014.Subnet1_Host[6].mac 	droppedPkBitError:sum(packetBytes) 	0
attr interpolationmode  none
attr source  dropPkBitError
attr title  "packets dropped/bit error, sum(packetBytes)"
scalar EPL_tii2014.Subnet1_Host[6].mac 	droppedPkIfaceDown:count 	0
attr interpolationmode  none
attr source  dropPkIfaceDown
attr title  "packets dropped/interface down, count"
scalar EPL_tii2014.Subnet1_Host[6].mac 	droppedPkIfaceDown:sum(packetBytes) 	0
attr interpolationmode  none
attr source  dropPkIfaceDown
attr title  "packets dropped/interface down, sum(packetBytes)"
scalar EPL_tii2014.Subnet1_Host[6].mac 	rxPkFromHL:count 	84
attr interpolationmode  none
attr source  rxPkFromHL
attr title  "packet bytes from higher layer, count"
scalar EPL_tii2014.Subnet1_Host[6].mac 	rxPkFromHL:sum(packetBytes) 	5376
attr interpolationmode  none
attr source  rxPkFromHL
attr title  "packet bytes from higher layer, sum(packetBytes)"
scalar EPL_tii2014.Subnet1_Host[6].mac 	rxPausePkUnits:count 	0
attr interpolationmode  none
attr title  "pause units received, count"
scalar EPL_tii2014.Subnet1_Host[6].mac 	rxPausePkUnits:sum 	0
attr interpolationmode  none
attr title  "pause units received, sum"
scalar EPL_tii2014.Subnet1_Host[6].mac 	txPausePkUnits:count 	0
attr interpolationmode  none
attr title  "pause units sent, count"
scalar EPL_tii2014.Subnet1_Host[6].mac 	txPausePkUnits:sum 	0
attr interpolationmode  none
attr title  "pause units sent, sum"
scalar EPL_tii2014.Subnet1_Host[6].mac 	passedUpPk:count 	1470
attr interpolationmode  none
attr source  packetSentToUpper
attr title  "packets passed to higher layer, count"
scalar EPL_tii2014.Subnet1_Host[6].mac 	passedUpPk:sum(packetBytes) 	94080
attr interpolationmode  none
attr source  packetSentToUpper
attr title  "packets passed to higher layer, sum(packetBytes)"
scalar EPL_tii2014.Subnet1_Host[6].mac 	rxPkOk:count 	1470
attr interpolationmode  none
attr source  rxPkOk
attr title  "packets received OK, count"
scalar EPL_tii2014.Subnet1_Host[6].mac 	rxPkOk:sum(packetBytes) 	94080
attr interpolationmode  none
attr source  rxPkOk
attr title  "packets received OK, sum(packetBytes)"
scalar EPL_tii2014.Subnet1_Host[6].mac 	txPk:count 	84
attr interpolationmode  none
attr source  txPk
attr title  "packets transmitted, count"
scalar EPL_tii2014.Subnet1_Host[6].mac 	txPk:sum(packetBytes) 	5376
attr interpolationmode  none
attr source  txPk
attr title  "packets transmitted, sum(packetBytes)"
scalar EPL_tii2014.Subnet1_Host[6].lpi_client 	linkPLPI_time:min 	0.003682623865
attr source  partial_lpi_time
scalar EPL_tii2014.Subnet1_Host[6].lpi_client 	linkPLPI_time:max 	0.003682623865
attr source  partial_lpi_time
scalar EPL_tii2014.Subnet1_Host[6].lpi_client 	linkPLPI_time:timeavg 	0.003682623865
attr source  partial_lpi_time
scalar EPL_tii2014.Subnet1_Host[6].lpi_client 	linkLPI_time:min 	0.000143999998
attr source  lpi_time
scalar EPL_tii2014.Subnet1_Host[6].lpi_client 	linkLPI_time:max 	0.008177276136
attr source  lpi_time
scalar EPL_tii2014.Subnet1_Host[6].lpi_client 	linkLPI_time:timeavg 	0.0079859529927694
attr source  lpi_time
scalar EPL_tii2014.Subnet1_Host[7].CN 	sentPk:count 	168
attr interpolationmode  none
attr source  sentPk
attr title  "packets sent, count"
scalar EPL_tii2014.Subnet1_Host[7].CN 	sentPk:sum(packetBytes) 	1890
attr interpolationmode  none
attr source  sentPk
attr title  "packets sent, sum(packetBytes)"
scalar EPL_tii2014.Subnet1_Host[7].CN 	rcvdPk:count 	42
attr interpolationmode  none
attr source  rcvdPk
attr title  "packets received, count"
scalar EPL_tii2014.Subnet1_Host[7].CN 	rcvdPk:sum(packetBytes) 	42
attr interpolationmode  none
attr source  rcvdPk
attr title  "packets received, sum(packetBytes)"
scalar EPL_tii2014.Subnet1_Host[7].llc 	pauseSent:count 	0
attr title  "pause sent, count"
scalar EPL_tii2014.Subnet1_Host[7].llc 	pauseSent:sum 	0
attr title  "pause sent, sum"
scalar EPL_tii2014.Subnet1_Host[7].llc 	decapPk:count 	1470
attr interpolationmode  none
attr source  decapPk
attr title  "packets decapsulated, count"
scalar EPL_tii2014.Subnet1_Host[7].llc 	decapPk:sum(packetBytes) 	58758
attr interpolationmode  none
attr source  decapPk
attr title  "packets decapsulated, sum(packetBytes)"
scalar EPL_tii2014.Subnet1_Host[7].llc 	encapPk:count 	84
attr interpolationmode  none
attr source  encapPk
attr title  "packets encapsulated, count"
scalar EPL_tii2014.Subnet1_Host[7].llc 	encapPk:sum(packetBytes) 	1890
attr interpolationmode  none
attr source  encapPk
attr title  "packets encapsulated, sum(packetBytes)"
scalar EPL_tii2014.Subnet1_Host[7].mac 	"simulated time" 	0.504
scalar EPL_tii2014.Subnet1_Host[7].mac 	full-duplex 	1
scalar EPL_tii2014.Subnet1_Host[7].mac 	"frames/sec sent" 	166.66666666667
scalar EPL_tii2014.Subnet1_Host[7].mac 	"frames/sec rcvd" 	2916.6666666667
scalar EPL_tii2014.Subnet1_Host[7].mac 	"bits/sec sent" 	85333.333333333
scalar EPL_tii2014.Subnet1_Host[7].mac 	"bits/sec rcvd" 	1493333.3333333
scalar EPL_tii2014.Subnet1_Host[7].mac 	"rx channel idle (%)" 	98.32
scalar EPL_tii2014.Subnet1_Host[7].mac 	"rx channel utilization (%)" 	1.68
scalar EPL_tii2014.Subnet1_Host[7].mac 	droppedPkNotForUs:count 	0
attr interpolationmode  none
attr source  dropPkNotForUs
attr title  "packets dropped/not for us, count"
scalar EPL_tii2014.Subnet1_Host[7].mac 	droppedPkNotForUs:sum(packetBytes) 	0
attr interpolationmode  none
attr source  dropPkNotForUs
attr title  "packets dropped/not for us, sum(packetBytes)"
scalar EPL_tii2014.Subnet1_Host[7].mac 	droppedPkBitError:count 	0
attr interpolationmode  none
attr source  dropPkBitError
attr title  "packets dropped/bit error, count"
scalar EPL_tii2014.Subnet1_Host[7].mac 	droppedPkBitError:sum(packetBytes) 	0
attr interpolationmode  none
attr source  dropPkBitError
attr title  "packets dropped/bit error, sum(packetBytes)"
scalar EPL_tii2014.Subnet1_Host[7].mac 	droppedPkIfaceDown:count 	0
attr interpolationmode  none
attr source  dropPkIfaceDown
attr title  "packets dropped/interface down, count"
scalar EPL_tii2014.Subnet1_Host[7].mac 	droppedPkIfaceDown:sum(packetBytes) 	0
attr interpolationmode  none
attr source  dropPkIfaceDown
attr title  "packets dropped/interface down, sum(packetBytes)"
scalar EPL_tii2014.Subnet1_Host[7].mac 	rxPkFromHL:count 	84
attr interpolationmode  none
attr source  rxPkFromHL
attr title  "packet bytes from higher layer, count"
scalar EPL_tii2014.Subnet1_Host[7].mac 	rxPkFromHL:sum(packetBytes) 	5376
attr interpolationmode  none
attr source  rxPkFromHL
attr title  "packet bytes from higher layer, sum(packetBytes)"
scalar EPL_tii2014.Subnet1_Host[7].mac 	rxPausePkUnits:count 	0
attr interpolationmode  none
attr title  "pause units received, count"
scalar EPL_tii2014.Subnet1_Host[7].mac 	rxPausePkUnits:sum 	0
attr interpolationmode  none
attr title  "pause units received, sum"
scalar EPL_tii2014.Subnet1_Host[7].mac 	txPausePkUnits:count 	0
attr interpolationmode  none
attr title  "pause units sent, count"
scalar EPL_tii2014.Subnet1_Host[7].mac 	txPausePkUnits:sum 	0
attr interpolationmode  none
attr title  "pause units sent, sum"
scalar EPL_tii2014.Subnet1_Host[7].mac 	passedUpPk:count 	1470
attr interpolationmode  none
attr source  packetSentToUpper
attr title  "packets passed to higher layer, count"
scalar EPL_tii2014.Subnet1_Host[7].mac 	passedUpPk:sum(packetBytes) 	94080
attr interpolationmode  none
attr source  packetSentToUpper
attr title  "packets passed to higher layer, sum(packetBytes)"
scalar EPL_tii2014.Subnet1_Host[7].mac 	rxPkOk:count 	1470
attr interpolationmode  none
attr source  rxPkOk
attr title  "packets received OK, count"
scalar EPL_tii2014.Subnet1_Host[7].mac 	rxPkOk:sum(packetBytes) 	94080
attr interpolationmode  none
attr source  rxPkOk
attr title  "packets received OK, sum(packetBytes)"
scalar EPL_tii2014.Subnet1_Host[7].mac 	txPk:count 	84
attr interpolationmode  none
attr source  txPk
attr title  "packets transmitted, count"
scalar EPL_tii2014.Subnet1_Host[7].mac 	txPk:sum(packetBytes) 	5376
attr interpolationmode  none
attr source  txPk
attr title  "packets transmitted, sum(packetBytes)"
scalar EPL_tii2014.Subnet1_Host[7].lpi_client 	linkPLPI_time:min 	0.003682623865
attr source  partial_lpi_time
scalar EPL_tii2014.Subnet1_Host[7].lpi_client 	linkPLPI_time:max 	0.003682623865
attr source  partial_lpi_time
scalar EPL_tii2014.Subnet1_Host[7].lpi_client 	linkPLPI_time:timeavg 	0.003682623865
attr source  partial_lpi_time
scalar EPL_tii2014.Subnet1_Host[7].lpi_client 	linkLPI_time:min 	0.000143999998
attr source  lpi_time
scalar EPL_tii2014.Subnet1_Host[7].lpi_client 	linkLPI_time:max 	0.008177276136
attr source  lpi_time
scalar EPL_tii2014.Subnet1_Host[7].lpi_client 	linkLPI_time:timeavg 	0.0079859529927694
attr source  lpi_time
scalar EPL_tii2014.Subnet1_Host[8].CN 	sentPk:count 	168
attr interpolationmode  none
attr source  sentPk
attr title  "packets sent, count"
scalar EPL_tii2014.Subnet1_Host[8].CN 	sentPk:sum(packetBytes) 	1890
attr interpolationmode  none
attr source  sentPk
attr title  "packets sent, sum(packetBytes)"
scalar EPL_tii2014.Subnet1_Host[8].CN 	rcvdPk:count 	42
attr interpolationmode  none
attr source  rcvdPk
attr title  "packets received, count"
scalar EPL_tii2014.Subnet1_Host[8].CN 	rcvdPk:sum(packetBytes) 	42
attr interpolationmode  none
attr source  rcvdPk
attr title  "packets received, sum(packetBytes)"
scalar EPL_tii2014.Subnet1_Host[8].llc 	pauseSent:count 	0
attr title  "pause sent, count"
scalar EPL_tii2014.Subnet1_Host[8].llc 	pauseSent:sum 	0
attr title  "pause sent, sum"
scalar EPL_tii2014.Subnet1_Host[8].llc 	decapPk:count 	1470
attr interpolationmode  none
attr source  decapPk
attr title  "packets decapsulated, count"
scalar EPL_tii2014.Subnet1_Host[8].llc 	decapPk:sum(packetBytes) 	58758
attr interpolationmode  none
attr source  decapPk
attr title  "packets decapsulated, sum(packetBytes)"
scalar EPL_tii2014.Subnet1_Host[8].llc 	encapPk:count 	84
attr interpolationmode  none
attr source  encapPk
attr title  "packets encapsulated, count"
scalar EPL_tii2014.Subnet1_Host[8].llc 	encapPk:sum(packetBytes) 	1890
attr interpolationmode  none
attr source  encapPk
attr title  "packets encapsulated, sum(packetBytes)"
scalar EPL_tii2014.Subnet1_Host[8].mac 	"simulated time" 	0.504
scalar EPL_tii2014.Subnet1_Host[8].mac 	full-duplex 	1
scalar EPL_tii2014.Subnet1_Host[8].mac 	"frames/sec sent" 	166.66666666667
scalar EPL_tii2014.Subnet1_Host[8].mac 	"frames/sec rcvd" 	2916.6666666667
scalar EPL_tii2014.Subnet1_Host[8].mac 	"bits/sec sent" 	85333.333333333
scalar EPL_tii2014.Subnet1_Host[8].mac 	"bits/sec rcvd" 	1493333.3333333
scalar EPL_tii2014.Subnet1_Host[8].mac 	"rx channel idle (%)" 	98.32
scalar EPL_tii2014.Subnet1_Host[8].mac 	"rx channel utilization (%)" 	1.68
scalar EPL_tii2014.Subnet1_Host[8].mac 	droppedPkNotForUs:count 	0
attr interpolationmode  none
attr source  dropPkNotForUs
attr title  "packets dropped/not for us, count"
scalar EPL_tii2014.Subnet1_Host[8].mac 	droppedPkNotForUs:sum(packetBytes) 	0
attr interpolationmode  none
attr source  dropPkNotForUs
attr title  "packets dropped/not for us, sum(packetBytes)"
scalar EPL_tii2014.Subnet1_Host[8].mac 	droppedPkBitError:count 	0
attr interpolationmode  none
attr source  dropPkBitError
attr title  "packets dropped/bit error, count"
scalar EPL_tii2014.Subnet1_Host[8].mac 	droppedPkBitError:sum(packetBytes) 	0
attr interpolationmode  none
attr source  dropPkBitError
attr title  "packets dropped/bit error, sum(packetBytes)"
scalar EPL_tii2014.Subnet1_Host[8].mac 	droppedPkIfaceDown:count 	0
attr interpolationmode  none
attr source  dropPkIfaceDown
attr title  "packets dropped/interface down, count"
scalar EPL_tii2014.Subnet1_Host[8].mac 	droppedPkIfaceDown:sum(packetBytes) 	0
attr interpolationmode  none
attr source  dropPkIfaceDown
attr title  "packets dropped/interface down, sum(packetBytes)"
scalar EPL_tii2014.Subnet1_Host[8].mac 	rxPkFromHL:count 	84
attr interpolationmode  none
attr source  rxPkFromHL
attr title  "packet bytes from higher layer, count"
scalar EPL_tii2014.Subnet1_Host[8].mac 	rxPkFromHL:sum(packetBytes) 	5376
attr interpolationmode  none
attr source  rxPkFromHL
attr title  "packet bytes from higher layer, sum(packetBytes)"
scalar EPL_tii2014.Subnet1_Host[8].mac 	rxPausePkUnits:count 	0
attr interpolationmode  none
attr title  "pause units received, count"
scalar EPL_tii2014.Subnet1_Host[8].mac 	rxPausePkUnits:sum 	0
attr interpolationmode  none
attr title  "pause units received, sum"
scalar EPL_tii2014.Subnet1_Host[8].mac 	txPausePkUnits:count 	0
attr interpolationmode  none
attr title  "pause units sent, count"
scalar EPL_tii2014.Subnet1_Host[8].mac 	txPausePkUnits:sum 	0
attr interpolationmode  none
attr title  "pause units sent, sum"
scalar EPL_tii2014.Subnet1_Host[8].mac 	passedUpPk:count 	1470
attr interpolationmode  none
attr source  packetSentToUpper
attr title  "packets passed to higher layer, count"
scalar EPL_tii2014.Subnet1_Host[8].mac 	passedUpPk:sum(packetBytes) 	94080
attr interpolationmode  none
attr source  packetSentToUpper
attr title  "packets passed to higher layer, sum(packetBytes)"
scalar EPL_tii2014.Subnet1_Host[8].mac 	rxPkOk:count 	1470
attr interpolationmode  none
attr source  rxPkOk
attr title  "packets received OK, count"
scalar EPL_tii2014.Subnet1_Host[8].mac 	rxPkOk:sum(packetBytes) 	94080
attr interpolationmode  none
attr source  rxPkOk
attr title  "packets received OK, sum(packetBytes)"
scalar EPL_tii2014.Subnet1_Host[8].mac 	txPk:count 	84
attr interpolationmode  none
attr source  txPk
attr title  "packets transmitted, count"
scalar EPL_tii2014.Subnet1_Host[8].mac 	txPk:sum(packetBytes) 	5376
attr interpolationmode  none
attr source  txPk
attr title  "packets transmitted, sum(packetBytes)"
scalar EPL_tii2014.Subnet1_Host[8].lpi_client 	linkPLPI_time:min 	0.003682623865
attr source  partial_lpi_time
scalar EPL_tii2014.Subnet1_Host[8].lpi_client 	linkPLPI_time:max 	0.003682623865
attr source  partial_lpi_time
scalar EPL_tii2014.Subnet1_Host[8].lpi_client 	linkPLPI_time:timeavg 	0.003682623865
attr source  partial_lpi_time
scalar EPL_tii2014.Subnet1_Host[8].lpi_client 	linkLPI_time:min 	0.000143999998
attr source  lpi_time
scalar EPL_tii2014.Subnet1_Host[8].lpi_client 	linkLPI_time:max 	0.008177276136
attr source  lpi_time
scalar EPL_tii2014.Subnet1_Host[8].lpi_client 	linkLPI_time:timeavg 	0.0079859529927694
attr source  lpi_time
scalar EPL_tii2014.Subnet1_Host[9].CN 	sentPk:count 	168
attr interpolationmode  none
attr source  sentPk
attr title  "packets sent, count"
scalar EPL_tii2014.Subnet1_Host[9].CN 	sentPk:sum(packetBytes) 	1890
attr interpolationmode  none
attr source  sentPk
attr title  "packets sent, sum(packetBytes)"
scalar EPL_tii2014.Subnet1_Host[9].CN 	rcvdPk:count 	42
attr interpolationmode  none
attr source  rcvdPk
attr title  "packets received, count"
scalar EPL_tii2014.Subnet1_Host[9].CN 	rcvdPk:sum(packetBytes) 	42
attr interpolationmode  none
attr source  rcvdPk
attr title  "packets received, sum(packetBytes)"
scalar EPL_tii2014.Subnet1_Host[9].llc 	pauseSent:count 	0
attr title  "pause sent, count"
scalar EPL_tii2014.Subnet1_Host[9].llc 	pauseSent:sum 	0
attr title  "pause sent, sum"
scalar EPL_tii2014.Subnet1_Host[9].llc 	decapPk:count 	1470
attr interpolationmode  none
attr source  decapPk
attr title  "packets decapsulated, count"
scalar EPL_tii2014.Subnet1_Host[9].llc 	decapPk:sum(packetBytes) 	58758
attr interpolationmode  none
attr source  decapPk
attr title  "packets decapsulated, sum(packetBytes)"
scalar EPL_tii2014.Subnet1_Host[9].llc 	encapPk:count 	84
attr interpolationmode  none
attr source  encapPk
attr title  "packets encapsulated, count"
scalar EPL_tii2014.Subnet1_Host[9].llc 	encapPk:sum(packetBytes) 	1890
attr interpolationmode  none
attr source  encapPk
attr title  "packets encapsulated, sum(packetBytes)"
scalar EPL_tii2014.Subnet1_Host[9].mac 	"simulated time" 	0.504
scalar EPL_tii2014.Subnet1_Host[9].mac 	full-duplex 	1
scalar EPL_tii2014.Subnet1_Host[9].mac 	"frames/sec sent" 	166.66666666667
scalar EPL_tii2014.Subnet1_Host[9].mac 	"frames/sec rcvd" 	2916.6666666667
scalar EPL_tii2014.Subnet1_Host[9].mac 	"bits/sec sent" 	85333.333333333
scalar EPL_tii2014.Subnet1_Host[9].mac 	"bits/sec rcvd" 	1493333.3333333
scalar EPL_tii2014.Subnet1_Host[9].mac 	"rx channel idle (%)" 	98.32
scalar EPL_tii2014.Subnet1_Host[9].mac 	"rx channel utilization (%)" 	1.68
scalar EPL_tii2014.Subnet1_Host[9].mac 	droppedPkNotForUs:count 	0
attr interpolationmode  none
attr source  dropPkNotForUs
attr title  "packets dropped/not for us, count"
scalar EPL_tii2014.Subnet1_Host[9].mac 	droppedPkNotForUs:sum(packetBytes) 	0
attr interpolationmode  none
attr source  dropPkNotForUs
attr title  "packets dropped/not for us, sum(packetBytes)"
scalar EPL_tii2014.Subnet1_Host[9].mac 	droppedPkBitError:count 	0
attr interpolationmode  none
attr source  dropPkBitError
attr title  "packets dropped/bit error, count"
scalar EPL_tii2014.Subnet1_Host[9].mac 	droppedPkBitError:sum(packetBytes) 	0
attr interpolationmode  none
attr source  dropPkBitError
attr title  "packets dropped/bit error, sum(packetBytes)"
scalar EPL_tii2014.Subnet1_Host[9].mac 	droppedPkIfaceDown:count 	0
attr interpolationmode  none
attr source  dropPkIfaceDown
attr title  "packets dropped/interface down, count"
scalar EPL_tii2014.Subnet1_Host[9].mac 	droppedPkIfaceDown:sum(packetBytes) 	0
attr interpolationmode  none
attr source  dropPkIfaceDown
attr title  "packets dropped/interface down, sum(packetBytes)"
scalar EPL_tii2014.Subnet1_Host[9].mac 	rxPkFromHL:count 	84
attr interpolationmode  none
attr source  rxPkFromHL
attr title  "packet bytes from higher layer, count"
scalar EPL_tii2014.Subnet1_Host[9].mac 	rxPkFromHL:sum(packetBytes) 	5376
attr interpolationmode  none
attr source  rxPkFromHL
attr title  "packet bytes from higher layer, sum(packetBytes)"
scalar EPL_tii2014.Subnet1_Host[9].mac 	rxPausePkUnits:count 	0
attr interpolationmode  none
attr title  "pause units received, count"
scalar EPL_tii2014.Subnet1_Host[9].mac 	rxPausePkUnits:sum 	0
attr interpolationmode  none
attr title  "pause units received, sum"
scalar EPL_tii2014.Subnet1_Host[9].mac 	txPausePkUnits:count 	0
attr interpolationmode  none
attr title  "pause units sent, count"
scalar EPL_tii2014.Subnet1_Host[9].mac 	txPausePkUnits:sum 	0
attr interpolationmode  none
attr title  "pause units sent, sum"
scalar EPL_tii2014.Subnet1_Host[9].mac 	passedUpPk:count 	1470
attr interpolationmode  none
attr source  packetSentToUpper
attr title  "packets passed to higher layer, count"
scalar EPL_tii2014.Subnet1_Host[9].mac 	passedUpPk:sum(packetBytes) 	94080
attr interpolationmode  none
attr source  packetSentToUpper
attr title  "packets passed to higher layer, sum(packetBytes)"
scalar EPL_tii2014.Subnet1_Host[9].mac 	rxPkOk:count 	1470
attr interpolationmode  none
attr source  rxPkOk
attr title  "packets received OK, count"
scalar EPL_tii2014.Subnet1_Host[9].mac 	rxPkOk:sum(packetBytes) 	94080
attr interpolationmode  none
attr source  rxPkOk
attr title  "packets received OK, sum(packetBytes)"
scalar EPL_tii2014.Subnet1_Host[9].mac 	txPk:count 	84
attr interpolationmode  none
attr source  txPk
attr title  "packets transmitted, count"
scalar EPL_tii2014.Subnet1_Host[9].mac 	txPk:sum(packetBytes) 	5376
attr interpolationmode  none
attr source  txPk
attr title  "packets transmitted, sum(packetBytes)"
scalar EPL_tii2014.Subnet1_Host[9].lpi_client 	linkPLPI_time:min 	0.003682623865
attr source  partial_lpi_time
scalar EPL_tii2014.Subnet1_Host[9].lpi_client 	linkPLPI_time:max 	0.003682623865
attr source  partial_lpi_time
scalar EPL_tii2014.Subnet1_Host[9].lpi_client 	linkPLPI_time:timeavg 	0.003682623865
attr source  partial_lpi_time
scalar EPL_tii2014.Subnet1_Host[9].lpi_client 	linkLPI_time:min 	0.000143999998
attr source  lpi_time
scalar EPL_tii2014.Subnet1_Host[9].lpi_client 	linkLPI_time:max 	0.008177276136
attr source  lpi_time
scalar EPL_tii2014.Subnet1_Host[9].lpi_client 	linkLPI_time:timeavg 	0.0079859529927694
attr source  lpi_time
scalar EPL_tii2014.Subnet1_Host[10].CN 	sentPk:count 	168
attr interpolationmode  none
attr source  sentPk
attr title  "packets sent, count"
scalar EPL_tii2014.Subnet1_Host[10].CN 	sentPk:sum(packetBytes) 	1890
attr interpolationmode  none
attr source  sentPk
attr title  "packets sent, sum(packetBytes)"
scalar EPL_tii2014.Subnet1_Host[10].CN 	rcvdPk:count 	42
attr interpolationmode  none
attr source  rcvdPk
attr title  "packets received, count"
scalar EPL_tii2014.Subnet1_Host[10].CN 	rcvdPk:sum(packetBytes) 	42
attr interpolationmode  none
attr source  rcvdPk
attr title  "packets received, sum(packetBytes)"
scalar EPL_tii2014.Subnet1_Host[10].llc 	pauseSent:count 	0
attr title  "pause sent, count"
scalar EPL_tii2014.Subnet1_Host[10].llc 	pauseSent:sum 	0
attr title  "pause sent, sum"
scalar EPL_tii2014.Subnet1_Host[10].llc 	decapPk:count 	1470
attr interpolationmode  none
attr source  decapPk
attr title  "packets decapsulated, count"
scalar EPL_tii2014.Subnet1_Host[10].llc 	decapPk:sum(packetBytes) 	58758
attr interpolationmode  none
attr source  decapPk
attr title  "packets decapsulated, sum(packetBytes)"
scalar EPL_tii2014.Subnet1_Host[10].llc 	encapPk:count 	84
attr interpolationmode  none
attr source  encapPk
attr title  "packets encapsulated, count"
scalar EPL_tii2014.Subnet1_Host[10].llc 	encapPk:sum(packetBytes) 	1890
attr interpolationmode  none
attr source  encapPk
attr title  "packets encapsulated, sum(packetBytes)"
scalar EPL_tii2014.Subnet1_Host[10].mac 	"simulated time" 	0.504
scalar EPL_tii2014.Subnet1_Host[10].mac 	full-duplex 	1
scalar EPL_tii2014.Subnet1_Host[10].mac 	"frames/sec sent" 	166.66666666667
scalar EPL_tii2014.Subnet1_Host[10].mac 	"frames/sec rcvd" 	2916.6666666667
scalar EPL_tii2014.Subnet1_Host[10].mac 	"bits/sec sent" 	85333.333333333
scalar EPL_tii2014.Subnet1_Host[10].mac 	"bits/sec rcvd" 	1493333.3333333
scalar EPL_tii2014.Subnet1_Host[10].mac 	"rx channel idle (%)" 	98.32
scalar EPL_tii2014.Subnet1_Host[10].mac 	"rx channel utilization (%)" 	1.68
scalar EPL_tii2014.Subnet1_Host[10].mac 	droppedPkNotForUs:count 	0
attr interpolationmode  none
attr source  dropPkNotForUs
attr title  "packets dropped/not for us, count"
scalar EPL_tii2014.Subnet1_Host[10].mac 	droppedPkNotForUs:sum(packetBytes) 	0
attr interpolationmode  none
attr source  dropPkNotForUs
attr title  "packets dropped/not for us, sum(packetBytes)"
scalar EPL_tii2014.Subnet1_Host[10].mac 	droppedPkBitError:count 	0
attr interpolationmode  none
attr source  dropPkBitError
attr title  "packets dropped/bit error, count"
scalar EPL_tii2014.Subnet1_Host[10].mac 	droppedPkBitError:sum(packetBytes) 	0
attr interpolationmode  none
attr source  dropPkBitError
attr title  "packets dropped/bit error, sum(packetBytes)"
scalar EPL_tii2014.Subnet1_Host[10].mac 	droppedPkIfaceDown:count 	0
attr interpolationmode  none
attr source  dropPkIfaceDown
attr title  "packets dropped/interface down, count"
scalar EPL_tii2014.Subnet1_Host[10].mac 	droppedPkIfaceDown:sum(packetBytes) 	0
attr interpolationmode  none
attr source  dropPkIfaceDown
attr title  "packets dropped/interface down, sum(packetBytes)"
scalar EPL_tii2014.Subnet1_Host[10].mac 	rxPkFromHL:count 	84
attr interpolationmode  none
attr source  rxPkFromHL
attr title  "packet bytes from higher layer, count"
scalar EPL_tii2014.Subnet1_Host[10].mac 	rxPkFromHL:sum(packetBytes) 	5376
attr interpolationmode  none
attr source  rxPkFromHL
attr title  "packet bytes from higher layer, sum(packetBytes)"
scalar EPL_tii2014.Subnet1_Host[10].mac 	rxPausePkUnits:count 	0
attr interpolationmode  none
attr title  "pause units received, count"
scalar EPL_tii2014.Subnet1_Host[10].mac 	rxPausePkUnits:sum 	0
attr interpolationmode  none
attr title  "pause units received, sum"
scalar EPL_tii2014.Subnet1_Host[10].mac 	txPausePkUnits:count 	0
attr interpolationmode  none
attr title  "pause units sent, count"
scalar EPL_tii2014.Subnet1_Host[10].mac 	txPausePkUnits:sum 	0
attr interpolationmode  none
attr title  "pause units sent, sum"
scalar EPL_tii2014.Subnet1_Host[10].mac 	passedUpPk:count 	1470
attr interpolationmode  none
attr source  packetSentToUpper
attr title  "packets passed to higher layer, count"
scalar EPL_tii2014.Subnet1_Host[10].mac 	passedUpPk:sum(packetBytes) 	94080
attr interpolationmode  none
attr source  packetSentToUpper
attr title  "packets passed to higher layer, sum(packetBytes)"
scalar EPL_tii2014.Subnet1_Host[10].mac 	rxPkOk:count 	1470
attr interpolationmode  none
attr source  rxPkOk
attr title  "packets received OK, count"
scalar EPL_tii2014.Subnet1_Host[10].mac 	rxPkOk:sum(packetBytes) 	94080
attr interpolationmode  none
attr source  rxPkOk
attr title  "packets received OK, sum(packetBytes)"
scalar EPL_tii2014.Subnet1_Host[10].mac 	txPk:count 	84
attr interpolationmode  none
attr source  txPk
attr title  "packets transmitted, count"
scalar EPL_tii2014.Subnet1_Host[10].mac 	txPk:sum(packetBytes) 	5376
attr interpolationmode  none
attr source  txPk
attr title  "packets transmitted, sum(packetBytes)"
scalar EPL_tii2014.Subnet1_Host[10].lpi_client 	linkPLPI_time:min 	0.003682623865
attr source  partial_lpi_time
scalar EPL_tii2014.Subnet1_Host[10].lpi_client 	linkPLPI_time:max 	0.003682623865
attr source  partial_lpi_time
scalar EPL_tii2014.Subnet1_Host[10].lpi_client 	linkPLPI_time:timeavg 	0.003682623865
attr source  partial_lpi_time
scalar EPL_tii2014.Subnet1_Host[10].lpi_client 	linkLPI_time:min 	0.000143999998
attr source  lpi_time
scalar EPL_tii2014.Subnet1_Host[10].lpi_client 	linkLPI_time:max 	0.008177276136
attr source  lpi_time
scalar EPL_tii2014.Subnet1_Host[10].lpi_client 	linkLPI_time:timeavg 	0.0079859529927694
attr source  lpi_time
scalar EPL_tii2014.Subnet1_Host[11].CN 	sentPk:count 	168
attr interpolationmode  none
attr source  sentPk
attr title  "packets sent, count"
scalar EPL_tii2014.Subnet1_Host[11].CN 	sentPk:sum(packetBytes) 	1890
attr interpolationmode  none
attr source  sentPk
attr title  "packets sent, sum(packetBytes)"
scalar EPL_tii2014.Subnet1_Host[11].CN 	rcvdPk:count 	42
attr interpolationmode  none
attr source  rcvdPk
attr title  "packets received, count"
scalar EPL_tii2014.Subnet1_Host[11].CN 	rcvdPk:sum(packetBytes) 	42
attr interpolationmode  none
attr source  rcvdPk
attr title  "packets received, sum(packetBytes)"
scalar EPL_tii2014.Subnet1_Host[11].llc 	pauseSent:count 	0
attr title  "pause sent, count"
scalar EPL_tii2014.Subnet1_Host[11].llc 	pauseSent:sum 	0
attr title  "pause sent, sum"
scalar EPL_tii2014.Subnet1_Host[11].llc 	decapPk:count 	1470
attr interpolationmode  none
attr source  decapPk
attr title  "packets decapsulated, count"
scalar EPL_tii2014.Subnet1_Host[11].llc 	decapPk:sum(packetBytes) 	58758
attr interpolationmode  none
attr source  decapPk
attr title  "packets decapsulated, sum(packetBytes)"
scalar EPL_tii2014.Subnet1_Host[11].llc 	encapPk:count 	84
attr interpolationmode  none
attr source  encapPk
attr title  "packets encapsulated, count"
scalar EPL_tii2014.Subnet1_Host[11].llc 	encapPk:sum(packetBytes) 	1890
attr interpolationmode  none
attr source  encapPk
attr title  "packets encapsulated, sum(packetBytes)"
scalar EPL_tii2014.Subnet1_Host[11].mac 	"simulated time" 	0.504
scalar EPL_tii2014.Subnet1_Host[11].mac 	full-duplex 	1
scalar EPL_tii2014.Subnet1_Host[11].mac 	"frames/sec sent" 	166.66666666667
scalar EPL_tii2014.Subnet1_Host[11].mac 	"frames/sec rcvd" 	2916.6666666667
scalar EPL_tii2014.Subnet1_Host[11].mac 	"bits/sec sent" 	85333.333333333
scalar EPL_tii2014.Subnet1_Host[11].mac 	"bits/sec rcvd" 	1493333.3333333
scalar EPL_tii2014.Subnet1_Host[11].mac 	"rx channel idle (%)" 	98.32
scalar EPL_tii2014.Subnet1_Host[11].mac 	"rx channel utilization (%)" 	1.68
scalar EPL_tii2014.Subnet1_Host[11].mac 	droppedPkNotForUs:count 	0
attr interpolationmode  none
attr source  dropPkNotForUs
attr title  "packets dropped/not for us, count"
scalar EPL_tii2014.Subnet1_Host[11].mac 	droppedPkNotForUs:sum(packetBytes) 	0
attr interpolationmode  none
attr source  dropPkNotForUs
attr title  "packets dropped/not for us, sum(packetBytes)"
scalar EPL_tii2014.Subnet1_Host[11].mac 	droppedPkBitError:count 	0
attr interpolationmode  none
attr source  dropPkBitError
attr title  "packets dropped/bit error, count"
scalar EPL_tii2014.Subnet1_Host[11].mac 	droppedPkBitError:sum(packetBytes) 	0
attr interpolationmode  none
attr source  dropPkBitError
attr title  "packets dropped/bit error, sum(packetBytes)"
scalar EPL_tii2014.Subnet1_Host[11].mac 	droppedPkIfaceDown:count 	0
attr interpolationmode  none
attr source  dropPkIfaceDown
attr title  "packets dropped/interface down, count"
scalar EPL_tii2014.Subnet1_Host[11].mac 	droppedPkIfaceDown:sum(packetBytes) 	0
attr interpolationmode  none
attr source  dropPkIfaceDown
attr title  "packets dropped/interface down, sum(packetBytes)"
scalar EPL_tii2014.Subnet1_Host[11].mac 	rxPkFromHL:count 	84
attr interpolationmode  none
attr source  rxPkFromHL
attr title  "packet bytes from higher layer, count"
scalar EPL_tii2014.Subnet1_Host[11].mac 	rxPkFromHL:sum(packetBytes) 	5376
attr interpolationmode  none
attr source  rxPkFromHL
attr title  "packet bytes from higher layer, sum(packetBytes)"
scalar EPL_tii2014.Subnet1_Host[11].mac 	rxPausePkUnits:count 	0
attr interpolationmode  none
attr title  "pause units received, count"
scalar EPL_tii2014.Subnet1_Host[11].mac 	rxPausePkUnits:sum 	0
attr interpolationmode  none
attr title  "pause units received, sum"
scalar EPL_tii2014.Subnet1_Host[11].mac 	txPausePkUnits:count 	0
attr interpolationmode  none
attr title  "pause units sent, count"
scalar EPL_tii2014.Subnet1_Host[11].mac 	txPausePkUnits:sum 	0
attr interpolationmode  none
attr title  "pause units sent, sum"
scalar EPL_tii2014.Subnet1_Host[11].mac 	passedUpPk:count 	1470
attr interpolationmode  none
attr source  packetSentToUpper
attr title  "packets passed to higher layer, count"
scalar EPL_tii2014.Subnet1_Host[11].mac 	passedUpPk:sum(packetBytes) 	94080
attr interpolationmode  none
attr source  packetSentToUpper
attr title  "packets passed to higher layer, sum(packetBytes)"
scalar EPL_tii2014.Subnet1_Host[11].mac 	rxPkOk:count 	1470
attr interpolationmode  none
attr source  rxPkOk
attr title  "packets received OK, count"
scalar EPL_tii2014.Subnet1_Host[11].mac 	rxPkOk:sum(packetBytes) 	94080
attr interpolationmode  none
attr source  rxPkOk
attr title  "packets received OK, sum(packetBytes)"
scalar EPL_tii2014.Subnet1_Host[11].mac 	txPk:count 	84
attr interpolationmode  none
attr source  txPk
attr title  "packets transmitted, count"
scalar EPL_tii2014.Subnet1_Host[11].mac 	txPk:sum(packetBytes) 	5376
attr interpolationmode  none
attr source  txPk
attr title  "packets transmitted, sum(packetBytes)"
scalar EPL_tii2014.Subnet1_Host[11].lpi_client 	linkPLPI_time:min 	0.003682623865
attr source  partial_lpi_time
scalar EPL_tii2014.Subnet1_Host[11].lpi_client 	linkPLPI_time:max 	0.003682623865
attr source  partial_lpi_time
scalar EPL_tii2014.Subnet1_Host[11].lpi_client 	linkPLPI_time:timeavg 	0.003682623865
attr source  partial_lpi_time
scalar EPL_tii2014.Subnet1_Host[11].lpi_client 	linkLPI_time:min 	0.000143999998
attr source  lpi_time
scalar EPL_tii2014.Subnet1_Host[11].lpi_client 	linkLPI_time:max 	0.008177276136
attr source  lpi_time
scalar EPL_tii2014.Subnet1_Host[11].lpi_client 	linkLPI_time:timeavg 	0.0079859529927694
attr source  lpi_time
scalar EPL_tii2014.Subnet1_Host[12].CN 	sentPk:count 	168
attr interpolationmode  none
attr source  sentPk
attr title  "packets sent, count"
scalar EPL_tii2014.Subnet1_Host[12].CN 	sentPk:sum(packetBytes) 	1890
attr interpolationmode  none
attr source  sentPk
attr title  "packets sent, sum(packetBytes)"
scalar EPL_tii2014.Subnet1_Host[12].CN 	rcvdPk:count 	42
attr interpolationmode  none
attr source  rcvdPk
attr title  "packets received, count"
scalar EPL_tii2014.Subnet1_Host[12].CN 	rcvdPk:sum(packetBytes) 	42
attr interpolationmode  none
attr source  rcvdPk
attr title  "packets received, sum(packetBytes)"
scalar EPL_tii2014.Subnet1_Host[12].llc 	pauseSent:count 	0
attr title  "pause sent, count"
scalar EPL_tii2014.Subnet1_Host[12].llc 	pauseSent:sum 	0
attr title  "pause sent, sum"
scalar EPL_tii2014.Subnet1_Host[12].llc 	decapPk:count 	1470
attr interpolationmode  none
attr source  decapPk
attr title  "packets decapsulated, count"
scalar EPL_tii2014.Subnet1_Host[12].llc 	decapPk:sum(packetBytes) 	58758
attr interpolationmode  none
attr source  decapPk
attr title  "packets decapsulated, sum(packetBytes)"
scalar EPL_tii2014.Subnet1_Host[12].llc 	encapPk:count 	84
attr interpolationmode  none
attr source  encapPk
attr title  "packets encapsulated, count"
scalar EPL_tii2014.Subnet1_Host[12].llc 	encapPk:sum(packetBytes) 	1890
attr interpolationmode  none
attr source  encapPk
attr title  "packets encapsulated, sum(packetBytes)"
scalar EPL_tii2014.Subnet1_Host[12].mac 	"simulated time" 	0.504
scalar EPL_tii2014.Subnet1_Host[12].mac 	full-duplex 	1
scalar EPL_tii2014.Subnet1_Host[12].mac 	"frames/sec sent" 	166.66666666667
scalar EPL_tii2014.Subnet1_Host[12].mac 	"frames/sec rcvd" 	2916.6666666667
scalar EPL_tii2014.Subnet1_Host[12].mac 	"bits/sec sent" 	85333.333333333
scalar EPL_tii2014.Subnet1_Host[12].mac 	"bits/sec rcvd" 	1493333.3333333
scalar EPL_tii2014.Subnet1_Host[12].mac 	"rx channel idle (%)" 	98.32
scalar EPL_tii2014.Subnet1_Host[12].mac 	"rx channel utilization (%)" 	1.68
scalar EPL_tii2014.Subnet1_Host[12].mac 	droppedPkNotForUs:count 	0
attr interpolationmode  none
attr source  dropPkNotForUs
attr title  "packets dropped/not for us, count"
scalar EPL_tii2014.Subnet1_Host[12].mac 	droppedPkNotForUs:sum(packetBytes) 	0
attr interpolationmode  none
attr source  dropPkNotForUs
attr title  "packets dropped/not for us, sum(packetBytes)"
scalar EPL_tii2014.Subnet1_Host[12].mac 	droppedPkBitError:count 	0
attr interpolationmode  none
attr source  dropPkBitError
attr title  "packets dropped/bit error, count"
scalar EPL_tii2014.Subnet1_Host[12].mac 	droppedPkBitError:sum(packetBytes) 	0
attr interpolationmode  none
attr source  dropPkBitError
attr title  "packets dropped/bit error, sum(packetBytes)"
scalar EPL_tii2014.Subnet1_Host[12].mac 	droppedPkIfaceDown:count 	0
attr interpolationmode  none
attr source  dropPkIfaceDown
attr title  "packets dropped/interface down, count"
scalar EPL_tii2014.Subnet1_Host[12].mac 	droppedPkIfaceDown:sum(packetBytes) 	0
attr interpolationmode  none
attr source  dropPkIfaceDown
attr title  "packets dropped/interface down, sum(packetBytes)"
scalar EPL_tii2014.Subnet1_Host[12].mac 	rxPkFromHL:count 	84
attr interpolationmode  none
attr source  rxPkFromHL
attr title  "packet bytes from higher layer, count"
scalar EPL_tii2014.Subnet1_Host[12].mac 	rxPkFromHL:sum(packetBytes) 	5376
attr interpolationmode  none
attr source  rxPkFromHL
attr title  "packet bytes from higher layer, sum(packetBytes)"
scalar EPL_tii2014.Subnet1_Host[12].mac 	rxPausePkUnits:count 	0
attr interpolationmode  none
attr title  "pause units received, count"
scalar EPL_tii2014.Subnet1_Host[12].mac 	rxPausePkUnits:sum 	0
attr interpolationmode  none
attr title  "pause units received, sum"
scalar EPL_tii2014.Subnet1_Host[12].mac 	txPausePkUnits:count 	0
attr interpolationmode  none
attr title  "pause units sent, count"
scalar EPL_tii2014.Subnet1_Host[12].mac 	txPausePkUnits:sum 	0
attr interpolationmode  none
attr title  "pause units sent, sum"
scalar EPL_tii2014.Subnet1_Host[12].mac 	passedUpPk:count 	1470
attr interpolationmode  none
attr source  packetSentToUpper
attr title  "packets passed to higher layer, count"
scalar EPL_tii2014.Subnet1_Host[12].mac 	passedUpPk:sum(packetBytes) 	94080
attr interpolationmode  none
attr source  packetSentToUpper
attr title  "packets passed to higher layer, sum(packetBytes)"
scalar EPL_tii2014.Subnet1_Host[12].mac 	rxPkOk:count 	1470
attr interpolationmode  none
attr source  rxPkOk
attr title  "packets received OK, count"
scalar EPL_tii2014.Subnet1_Host[12].mac 	rxPkOk:sum(packetBytes) 	94080
attr interpolationmode  none
attr source  rxPkOk
attr title  "packets received OK, sum(packetBytes)"
scalar EPL_tii2014.Subnet1_Host[12].mac 	txPk:count 	84
attr interpolationmode  none
attr source  txPk
attr title  "packets transmitted, count"
scalar EPL_tii2014.Subnet1_Host[12].mac 	txPk:sum(packetBytes) 	5376
attr interpolationmode  none
attr source  txPk
attr title  "packets transmitted, sum(packetBytes)"
scalar EPL_tii2014.Subnet1_Host[12].lpi_client 	linkPLPI_time:min 	0.003682623865
attr source  partial_lpi_time
scalar EPL_tii2014.Subnet1_Host[12].lpi_client 	linkPLPI_time:max 	0.003682623865
attr source  partial_lpi_time
scalar EPL_tii2014.Subnet1_Host[12].lpi_client 	linkPLPI_time:timeavg 	0.003682623865
attr source  partial_lpi_time
scalar EPL_tii2014.Subnet1_Host[12].lpi_client 	linkLPI_time:min 	0.000143999998
attr source  lpi_time
scalar EPL_tii2014.Subnet1_Host[12].lpi_client 	linkLPI_time:max 	0.008177276136
attr source  lpi_time
[...]
scalar EPL_tii2014.Subnet2_Host[8].mac 	droppedPkIfaceDown:count 	0
attr interpolationmode  none
attr source  dropPkIfaceDown
attr title  "packets dropped/interface down, count"
scalar EPL_tii2014.Subnet2_Host[8].mac 	droppedPkIfaceDown:sum(packetBytes) 	0
attr interpolationmode  none
attr source  dropPkIfaceDown
attr title  "packets dropped/interface down, sum(packetBytes)"
scalar EPL_tii2014.Subnet2_Host[8].mac 	rxPkFromHL:count 	84
attr interpolationmode  none
attr source  rxPkFromHL
attr title  "packet bytes from higher layer, count"
scalar EPL_tii2014.Subnet2_Host[8].mac 	rxPkFromHL:sum(packetBytes) 	5376
attr interpolationmode  none
attr source  rxPkFromHL
attr title  "packet bytes from higher layer, sum(packetBytes)"
scalar EPL_tii2014.Subnet2_Host[8].mac 	rxPausePkUnits:count 	0
attr interpolationmode  none
attr title  "pause units received, count"
scalar EPL_tii2014.Subnet2_Host[8].mac 	rxPausePkUnits:sum 	0
attr interpolationmode  none
attr title  "pause units received, sum"
scalar EPL_tii2014.Subnet2_Host[8].mac 	txPausePkUnits:count 	0
attr interpolationmode  none
attr title  "pause units sent, count"
scalar EPL_tii2014.Subnet2_Host[8].mac 	txPausePkUnits:sum 	0
attr interpolationmode  none
attr title  "pause units sent, sum"
scalar EPL_tii2014.Subnet2_Host[8].mac 	passedUpPk:count 	1470
attr interpolationmode  none
attr source  packetSentToUpper
attr title  "packets passed to higher layer, count"
scalar EPL_tii2014.Subnet2_Host[8].mac 	passedUpPk:sum(packetBytes) 	94080
attr interpolationmode  none
attr source  packetSentToUpper
attr title  "packets passed to higher layer, sum(packetBytes)"
scalar EPL_tii2014.Subnet2_Host[8].mac 	rxPkOk:count 	1470
attr interpolationmode  none
attr source  rxPkOk
attr title  "packets received OK, count"
scalar EPL_tii2014.Subnet2_Host[8].mac 	rxPkOk:sum(packetBytes) 	94080
attr interpolationmode  none
attr source  rxPkOk
attr title  "packets received OK, sum(packetBytes)"
scalar EPL_tii2014.Subnet2_Host[8].mac 	txPk:count 	84
attr interpolationmode  none
attr source  txPk
attr title  "packets transmitted, count"
scalar EPL_tii2014.Subnet2_Host[8].mac 	txPk:sum(packetBytes) 	5376
attr interpolationmode  none
attr source  txPk
attr title  "packets transmitted, sum(packetBytes)"
scalar EPL_tii2014.Subnet2_Host[8].lpi_client 	linkPLPI_time:min 	0.003682623865
attr source  partial_lpi_time
scalar EPL_tii2014.Subnet2_Host[8].lpi_client 	linkPLPI_time:max 	0.003682623865
attr source  partial_lpi_time
scalar EPL_tii2014.Subnet2_Host[8].lpi_client 	linkPLPI_time:timeavg 	0.003682623865
attr source  partial_lpi_time
scalar EPL_tii2014.Subnet2_Host[8].lpi_client 	linkLPI_time:min 	0.000143999998
attr source  lpi_time
scalar EPL_tii2014.Subnet2_Host[8].lpi_client 	linkLPI_time:max 	0.008177276136
attr source  lpi_time
scalar EPL_tii2014.Subnet2_Host[8].lpi_client 	linkLPI_time:timeavg 	0.0079859529927694
attr source  lpi_time
scalar EPL_tii2014.Subnet2_Host[9].CN 	sentPk:count 	168
attr interpolationmode  none
attr source  sentPk
attr title  "packets sent, count"
scalar EPL_tii2014.Subnet2_Host[9].CN 	sentPk:sum(packetBytes) 	1890
attr interpolationmode  none
attr source  sentPk
attr title  "packets sent, sum(packetBytes)"
scalar EPL_tii2014.Subnet2_Host[9].CN 	rcvdPk:count 	42
attr interpolationmode  none
attr source  rcvdPk
attr title  "packets received, count"
scalar EPL_tii2014.Subnet2_Host[9].CN 	rcvdPk:sum(packetBytes) 	42
attr interpolationmode  none
attr source  rcvdPk
attr title  "packets received, sum(packetBytes)"
scalar EPL_tii2014.Subnet2_Host[9].llc 	pauseSent:count 	0
attr title  "pause sent, count"
scalar EPL_tii2014.Subnet2_Host[9].llc 	pauseSent:sum 	0
attr title  "pause sent, sum"
scalar EPL_tii2014.Subnet2_Host[9].llc 	decapPk:count 	1470
attr interpolationmode  none
attr source  decapPk
attr title  "packets decapsulated, count"
scalar EPL_tii2014.Subnet2_Host[9].llc 	decapPk:sum(packetBytes) 	58758
attr interpolationmode  none
attr source  decapPk
attr title  "packets decapsulated, sum(packetBytes)"
scalar EPL_tii2014.Subnet2_Host[9].llc 	encapPk:count 	84
attr interpolationmode  none
attr source  encapPk
attr title  "packets encapsulated, count"
scalar EPL_tii2014.Subnet2_Host[9].llc 	encapPk:sum(packetBytes) 	1890
attr interpolationmode  none
attr source  encapPk
attr title  "packets encapsulated, sum(packetBytes)"
scalar EPL_tii2014.Subnet2_Host[9].mac 	"simulated time" 	0.504
scalar EPL_tii2014.Subnet2_Host[9].mac 	full-duplex 	1
scalar EPL_tii2014.Subnet2_Host[9].mac 	"frames/sec sent" 	166.66666666667
scalar EPL_tii2014.Subnet2_Host[9].mac 	"frames/sec rcvd" 	2916.6666666667
scalar EPL_tii2014.Subnet2_Host[9].mac 	"bits/sec sent" 	85333.333333333
scalar EPL_tii2014.Subnet2_Host[9].mac 	"bits/sec rcvd" 	1493333.3333333
scalar EPL_tii2014.Subnet2_Host[9].mac 	"rx channel idle (%)" 	98.32
scalar EPL_tii2014.Subnet2_Host[9].mac 	"rx channel utilization (%)" 	1.68
scalar EPL_tii2014.Subnet2_Host[9].mac 	droppedPkNotForUs:count 	0
attr interpolationmode  none
attr source  dropPkNotForUs
attr title  "packets dropped/not for us, count"
scalar EPL_tii2014.Subnet2_Host[9].mac 	droppedPkNotForUs:sum(packetBytes) 	0
attr interpolationmode  none
attr source  dropPkNotForUs
attr title  "packets dropped/not for us, sum(packetBytes)"
scalar EPL_tii2014.Subnet2_Host[9].mac 	droppedPkBitError:count 	0
attr interpolationmode  none
attr source  dropPkBitError
attr title  "packets dropped/bit error, count"
scalar EPL_tii2014.Subnet2_Host[9].mac 	droppedPkBitError:sum(packetBytes) 	0
attr interpolationmode  none
attr source  dropPkBitError
attr title  "packets dropped/bit error, sum(packetBytes)"
scalar EPL_tii2014.Subnet2_Host[9].mac 	droppedPkIfaceDown:count 	0
attr interpolationmode  none
attr source  dropPkIfaceDown
attr title  "packets dropped/interface down, count"
scalar EPL_tii2014.Subnet2_Host[9].mac 	droppedPkIfaceDown:sum(packetBytes) 	0
attr interpolationmode  none
attr source  dropPkIfaceDown
attr title  "packets dropped/interface down, sum(packetBytes)"
scalar EPL_tii2014.Subnet2_Host[9].mac 	rxPkFromHL:count 	84
attr interpolationmode  none
attr source  rxPkFromHL
attr title  "packet bytes from higher layer, count"
scalar EPL_tii2014.Subnet2_Host[9].mac 	rxPkFromHL:sum(packetBytes) 	5376
attr interpolationmode  none
attr source  rxPkFromHL
attr title  "packet bytes from higher layer, sum(packetBytes)"
scalar EPL_tii2014.Subnet2_Host[9].mac 	rxPausePkUnits:count 	0
attr interpolationmode  none
attr title  "pause units received, count"
scalar EPL_tii2014.Subnet2_Host[9].mac 	rxPausePkUnits:sum 	0
attr interpolationmode  none
attr title  "pause units received, sum"
scalar EPL_tii2014.Subnet2_Host[9].mac 	txPausePkUnits:count 	0
attr interpolationmode  none
attr title  "pause units sent, count"
scalar EPL_tii2014.Subnet2_Host[9].mac 	txPausePkUnits:sum 	0
attr interpolationmode  none
attr title  "pause units sent, sum"
scalar EPL_tii2014.Subnet2_Host[9].mac 	passedUpPk:count 	1470
attr interpolationmode  none
attr source  packetSentToUpper
attr title  "packets passed to higher layer, count"
scalar EPL_tii2014.Subnet2_Host[9].mac 	passedUpPk:sum(packetBytes) 	94080
attr interpolationmode  none
attr source  packetSentToUpper
attr title  "packets passed to higher layer, sum(packetBytes)"
scalar EPL_tii2014.Subnet2_Host[9].mac 	rxPkOk:count 	1470
attr interpolationmode  none
attr source  rxPkOk
attr title  "packets received OK, count"
scalar EPL_tii2014.Subnet2_Host[9].mac 	rxPkOk:sum(packetBytes) 	94080
attr interpolationmode  none
attr source  rxPkOk
attr title  "packets received OK, sum(packetBytes)"
scalar EPL_tii2014.Subnet2_Host[9].mac 	txPk:count 	84
attr interpolationmode  none
attr source  txPk
attr title  "packets transmitted, count"
scalar EPL_tii2014.Subnet2_Host[9].mac 	txPk:sum(packetBytes) 	5376
attr interpolationmode  none
attr source  txPk
attr title  "packets transmitted, sum(packetBytes)"
scalar EPL_tii2014.Subnet2_Host[9].lpi_client 	linkPLPI_time:min 	0.003682623865
attr source  partial_lpi_time
scalar EPL_tii2014.Subnet2_Host[9].lpi_client 	linkPLPI_time:max 	0.003682623865
attr source  partial_lpi_time
scalar EPL_tii2014.Subnet2_Host[9].lpi_client 	linkPLPI_time:timeavg 	0.003682623865
attr source  partial_lpi_time
scalar EPL_tii2014.Subnet2_Host[9].lpi_client 	linkLPI_time:min 	0.000143999998
attr source  lpi_time
scalar EPL_tii2014.Subnet2_Host[9].lpi_client 	linkLPI_time:max 	0.008177276136
attr source  lpi_time
scalar EPL_tii2014.Subnet2_Host[9].lpi_client 	linkLPI_time:timeavg 	0.0079859529927694
attr source  lpi_time
scalar EPL_tii2014.DC_CN1.CN 	sentPk:count 	168
attr interpolationmode  none
attr source  sentPk
attr title  "packets sent, count"
scalar EPL_tii2014.DC_CN1.CN 	sentPk:sum(packetBytes) 	1890
attr interpolationmode  none
attr source  sentPk
attr title  "packets sent, sum(packetBytes)"
scalar EPL_tii2014.DC_CN1.CN 	rcvdPk:count 	42
attr interpolationmode  none
attr source  rcvdPk
attr title  "packets received, count"
scalar EPL_tii2014.DC_CN1.CN 	rcvdPk:sum(packetBytes) 	42
attr interpolationmode  none
attr source  rcvdPk
attr title  "packets received, sum(packetBytes)"
scalar EPL_tii2014.DC_CN1.llc 	pauseSent:count 	0
attr title  "pause sent, count"
scalar EPL_tii2014.DC_CN1.llc 	pauseSent:sum 	0
attr title  "pause sent, sum"
scalar EPL_tii2014.DC_CN1.llc 	decapPk:count 	1470
attr interpolationmode  none
attr source  decapPk
attr title  "packets decapsulated, count"
scalar EPL_tii2014.DC_CN1.llc 	decapPk:sum(packetBytes) 	58758
attr interpolationmode  none
attr source  decapPk
attr title  "packets decapsulated, sum(packetBytes)"
scalar EPL_tii2014.DC_CN1.llc 	encapPk:count 	84
attr interpolationmode  none
attr source  encapPk
attr title  "packets encapsulated, count"
scalar EPL_tii2014.DC_CN1.llc 	encapPk:sum(packetBytes) 	1890
attr interpolationmode  none
attr source  encapPk
attr title  "packets encapsulated, sum(packetBytes)"
scalar EPL_tii2014.DC_CN1.mac 	"simulated time" 	0.504
scalar EPL_tii2014.DC_CN1.mac 	full-duplex 	1
scalar EPL_tii2014.DC_CN1.mac 	"frames/sec sent" 	166.66666666667
scalar EPL_tii2014.DC_CN1.mac 	"frames/sec rcvd" 	2916.6666666667
scalar EPL_tii2014.DC_CN1.mac 	"bits/sec sent" 	85333.333333333
scalar EPL_tii2014.DC_CN1.mac 	"bits/sec rcvd" 	1493333.3333333
scalar EPL_tii2014.DC_CN1.mac 	"rx channel idle (%)" 	99.832
scalar EPL_tii2014.DC_CN1.mac 	"rx channel utilization (%)" 	0.168
scalar EPL_tii2014.DC_CN1.mac 	droppedPkNotForUs:count 	0
attr interpolationmode  none
attr source  dropPkNotForUs
attr title  "packets dropped/not for us, count"
scalar EPL_tii2014.DC_CN1.mac 	droppedPkNotForUs:sum(packetBytes) 	0
attr interpolationmode  none
attr source  dropPkNotForUs
attr title  "packets dropped/not for us, sum(packetBytes)"
scalar EPL_tii2014.DC_CN1.mac 	droppedPkBitError:count 	0
attr interpolationmode  none
attr source  dropPkBitError
attr title  "packets dropped/bit error, count"
scalar EPL_tii2014.DC_CN1.mac 	droppedPkBitError:sum(packetBytes) 	0
attr interpolationmode  none
attr source  dropPkBitError
attr title  "packets dropped/bit error, sum(packetBytes)"
scalar EPL_tii2014.DC_CN1.mac 	droppedPkIfaceDown:count 	0
attr interpolationmode  none
attr source  dropPkIfaceDown
attr title  "packets dropped/interface down, count"
scalar EPL_tii2014.DC_CN1.mac 	droppedPkIfaceDown:sum(packetBytes) 	0
attr interpolationmode  none
attr source  dropPkIfaceDown
attr title  "packets dropped/interface down, sum(packetBytes)"
scalar EPL_tii2014.DC_CN1.mac 	rxPkFromHL:count 	84
attr interpolationmode  none
attr source  rxPkFromHL
attr title  "packet bytes from higher layer, count"
scalar EPL_tii2014.DC_CN1.mac 	rxPkFromHL:sum(packetBytes) 	5376
attr interpolationmode  none
attr source  rxPkFromHL
attr title  "packet bytes from higher layer, sum(packetBytes)"
scalar EPL_tii2014.DC_CN1.mac 	rxPausePkUnits:count 	0
attr interpolationmode  none
attr title  "pause units received, count"
scalar EPL_tii2014.DC_CN1.mac 	rxPausePkUnits:sum 	0
attr interpolationmode  none
attr title  "pause units received, sum"
scalar EPL_tii2014.DC_CN1.mac 	txPausePkUnits:count 	0
attr interpolationmode  none
attr title  "pause units sent, count"
scalar EPL_tii2014.DC_CN1.mac 	txPausePkUnits:sum 	0
attr interpolationmode  none
attr title  "pause units sent, sum"
scalar EPL_tii2014.DC_CN1.mac 	passedUpPk:count 	1470
attr interpolationmode  none
attr source  packetSentToUpper
attr title  "packets passed to higher layer, count"
scalar EPL_tii2014.DC_CN1.mac 	passedUpPk:sum(packetBytes) 	94080
attr interpolationmode  none
attr source  packetSentToUpper
attr title  "packets passed to higher layer, sum(packetBytes)"
scalar EPL_tii2014.DC_CN1.mac 	rxPkOk:count 	1470
attr interpolationmode  none
attr source  rxPkOk
attr title  "packets received OK, count"
scalar EPL_tii2014.DC_CN1.mac 	rxPkOk:sum(packetBytes) 	94080
attr interpolationmode  none
attr source  rxPkOk
attr title  "packets received OK, sum(packetBytes)"
scalar EPL_tii2014.DC_CN1.mac 	txPk:count 	84
attr interpolationmode  none
attr source  txPk
attr title  "packets transmitted, count"
scalar EPL_tii2014.DC_CN1.mac 	txPk:sum(packetBytes) 	5376
attr interpolationmode  none
attr source  txPk
attr title  "packets transmitted, sum(packetBytes)"
scalar EPL_tii2014.DC_CN1.lpi_client 	linkPLPI_time:min 	0.003679083864
attr source  partial_lpi_time
scalar EPL_tii2014.DC_CN1.lpi_client 	linkPLPI_time:max 	0.003679083864
attr source  partial_lpi_time
scalar EPL_tii2014.DC_CN1.lpi_client 	linkPLPI_time:timeavg 	0.003679083864
attr source  partial_lpi_time
scalar EPL_tii2014.DC_CN1.lpi_client 	linkLPI_time:min 	0.000137855999
attr source  lpi_time
scalar EPL_tii2014.DC_CN1.lpi_client 	linkLPI_time:max 	0.008180816137
attr source  lpi_time
scalar EPL_tii2014.DC_CN1.lpi_client 	linkLPI_time:timeavg 	0.0079892646922147
attr source  lpi_time
scalar EPL_tii2014.DC_CN1.internalHub_EEE 	"simulated time" 	0.504
scalar EPL_tii2014.DC_CN1.internalHub_EEE 	messages/sec 	3166.6666666667
scalar EPL_tii2014.DC_CN1.internalHub_EEE 	pk:count 	1596
attr interpolationmode  none
attr source  pk
attr title  "packets, count"
scalar EPL_tii2014.DC_CN1.internalHub_EEE 	pk:sum(packetBytes) 	114870
attr interpolationmode  none
attr source  pk
attr title  "packets, sum(packetBytes)"
scalar EPL_tii2014.DC_CN2.CN 	sentPk:count 	168
attr interpolationmode  none
attr source  sentPk
attr title  "packets sent, count"
scalar EPL_tii2014.DC_CN2.CN 	sentPk:sum(packetBytes) 	1890
attr interpolationmode  none
attr source  sentPk
attr title  "packets sent, sum(packetBytes)"
scalar EPL_tii2014.DC_CN2.CN 	rcvdPk:count 	42
attr interpolationmode  none
attr source  rcvdPk
attr title  "packets received, count"
scalar EPL_tii2014.DC_CN2.CN 	rcvdPk:sum(packetBytes) 	42
attr interpolationmode  none
attr source  rcvdPk
attr title  "packets received, sum(packetBytes)"
scalar EPL_tii2014.DC_CN2.llc 	pauseSent:count 	0
attr title  "pause sent, count"
scalar EPL_tii2014.DC_CN2.llc 	pauseSent:sum 	0
attr title  "pause sent, sum"
scalar EPL_tii2014.DC_CN2.llc 	decapPk:count 	1470
attr interpolationmode  none
attr source  decapPk
attr title  "packets decapsulated, count"
scalar EPL_tii2014.DC_CN2.llc 	decapPk:sum(packetBytes) 	58758
attr interpolationmode  none
attr source  decapPk
attr title  "packets decapsulated, sum(packetBytes)"
scalar EPL_tii2014.DC_CN2.llc 	encapPk:count 	84
attr interpolationmode  none
attr source  encapPk
attr title  "packets encapsulated, count"
scalar EPL_tii2014.DC_CN2.llc 	encapPk:sum(packetBytes) 	1890
attr interpolationmode  none
attr source  encapPk
attr title  "packets encapsulated, sum(packetBytes)"
scalar EPL_tii2014.DC_CN2.mac 	"simulated time" 	0.504
scalar EPL_tii2014.DC_CN2.mac 	full-duplex 	1
scalar EPL_tii2014.DC_CN2.mac 	"frames/sec sent" 	166.66666666667
scalar EPL_tii2014.DC_CN2.mac 	"frames/sec rcvd" 	2916.6666666667
scalar EPL_tii2014.DC_CN2.mac 	"bits/sec sent" 	85333.333333333
scalar EPL_tii2014.DC_CN2.mac 	"bits/sec rcvd" 	1493333.3333333
scalar EPL_tii2014.DC_CN2.mac 	"rx channel idle (%)" 	99.832
scalar EPL_tii2014.DC_CN2.mac 	"rx channel utilization (%)" 	0.168
scalar EPL_tii2014.DC_CN2.mac 	droppedPkNotForUs:count 	0
attr interpolationmode  none
attr source  dropPkNotForUs
attr title  "packets dropped/not for us, count"
scalar EPL_tii2014.DC_CN2.mac 	droppedPkNotForUs:sum(packetBytes) 	0
attr interpolationmode  none
attr source  dropPkNotForUs
attr title  "packets dropped/not for us, sum(packetBytes)"
scalar EPL_tii2014.DC_CN2.mac 	droppedPkBitError:count 	0
attr interpolationmode  none
attr source  dropPkBitError
attr title  "packets dropped/bit error, count"
scalar EPL_tii2014.DC_CN2.mac 	droppedPkBitError:sum(packetBytes) 	0
attr interpolationmode  none
attr source  dropPkBitError
attr title  "packets dropped/bit error, sum(packetBytes)"
scalar EPL_tii2014.DC_CN2.mac 	droppedPkIfaceDown:count 	0
attr interpolationmode  none
attr source  dropPkIfaceDown
attr title  "packets dropped/interface down, count"
scalar EPL_tii2014.DC_CN2.mac 	droppedPkIfaceDown:sum(packetBytes) 	0
attr interpolationmode  none
attr source  dropPkIfaceDown
attr title  "packets dropped/interface down, sum(packetBytes)"
scalar EPL_tii2014.DC_CN2.mac 	rxPkFromHL:count 	84
attr interpolationmode  none
attr source  rxPkFromHL
attr title  "packet bytes from higher layer, count"
scalar EPL_tii2014.DC_CN2.mac 	rxPkFromHL:sum(packetBytes) 	5376
attr interpolationmode  none
attr source  rxPkFromHL
attr title  "packet bytes from higher layer, sum(packetBytes)"
scalar EPL_tii2014.DC_CN2.mac 	rxPausePkUnits:count 	0
attr interpolationmode  none
attr title  "pause units received, count"
scalar EPL_tii2014.DC_CN2.mac 	rxPausePkUnits:sum 	0
attr interpolationmode  none
attr title  "pause units received, sum"
scalar EPL_tii2014.DC_CN2.mac 	txPausePkUnits:count 	0
attr interpolationmode  none
attr title  "pause units sent, count"
scalar EPL_tii2014.DC_CN2.mac 	txPausePkUnits:sum 	0
attr interpolationmode  none
attr title  "pause units sent, sum"
scalar EPL_tii2014.DC_CN2.mac 	passedUpPk:count 	1470
attr interpolationmode  none
attr source  packetSentToUpper
attr title  "packets passed to higher layer, count"
scalar EPL_tii2014.DC_CN2.mac 	passedUpPk:sum(packetBytes) 	94080
attr interpolationmode  none
attr source  packetSentToUpper
attr title  "packets passed to higher layer, sum(packetBytes)"
scalar EPL_tii2014.DC_CN2.mac 	rxPkOk:count 	1470
attr interpolationmode  none
attr source  rxPkOk
attr title  "packets received OK, count"
scalar EPL_tii2014.DC_CN2.mac 	rxPkOk:sum(packetBytes) 	94080
attr interpolationmode  none
attr source  rxPkOk
attr title  "packets received OK, sum(packetBytes)"
scalar EPL_tii2014.DC_CN2.mac 	txPk:count 	84
attr interpolationmode  none
attr source  txPk
attr title  "packets transmitted, count"
scalar EPL_tii2014.DC_CN2.mac 	txPk:sum(packetBytes) 	5376
attr interpolationmode  none
attr source  txPk
attr title  "packets transmitted, sum(packetBytes)"
scalar EPL_tii2014.DC_CN2.lpi_client 	linkPLPI_time:min 	0.003638443863
attr source  partial_lpi_time
scalar EPL_tii2014.DC_CN2.lpi_client 	linkPLPI_time:max 	0.003638443863
attr source  partial_lpi_time
scalar EPL_tii2014.DC_CN2.lpi_client 	linkPLPI_time:timeavg 	0.003638443863
attr source  partial_lpi_time
scalar EPL_tii2014.DC_CN2.lpi_client 	linkLPI_time:min 	0.000185215999
attr source  lpi_time
scalar EPL_tii2014.DC_CN2.lpi_client 	linkLPI_time:max 	0.008221456138
attr source  lpi_time
scalar EPL_tii2014.DC_CN2.lpi_client 	linkLPI_time:timeavg 	0.0080300467456392
attr source  lpi_time
scalar EPL_tii2014.DC_CN2.internalHub_EEE 	"simulated time" 	0.504
scalar EPL_tii2014.DC_CN2.internalHub_EEE 	messages/sec 	3083.3333333333
scalar EPL_tii2014.DC_CN2.internalHub_EEE 	pk:count 	1554
attr interpolationmode  none
attr source  pk
attr title  "packets, count"
scalar EPL_tii2014.DC_CN2.internalHub_EEE 	pk:sum(packetBytes) 	111846
attr interpolationmode  none
attr source  pk
attr title  "packets, sum(packetBytes)"
